version 2
run MGnBase-0-20181110-19:39:50-17262
attr configname MGnBase
attr datetime 20181110-19:39:50
attr experiment MGnBase
attr inifile RLomnetpp.ini
attr iterationvars ""
attr iterationvarsf ""
attr measurement ""
attr network CloudDataCenterTS
attr processid 17262
attr repetition 0
attr replication #0
attr resultdir results
attr runnumber 0
attr seedset 0
param CloudDataCenterTS.appProc[*].delay[*].delay exponential(0.1s)
param CloudDataCenterTS.appProc[*].delay[*].maxDelay -1s
param CloudDataCenterTS.appProc[*].congCtl[*].toCongestionStatusInterval "exponential (30s)"
param CloudDataCenterTS.appProc[*].congCtl[*].fromCongestionStatusInterval "exponential (10s)"
param CloudDataCenterTS.appProc[*].congCtl[*].congestionMultiplier 1.3

scalar CloudDataCenterTS.appProc[0].server[0] rho 0.77994668483734
scalar CloudDataCenterTS.appProc[0].server[0] congestionRatio 0
scalar CloudDataCenterTS.appProc[0].server[0] totalJobs 13
scalar CloudDataCenterTS.appProc[0].server[0] droppedJobsQueue 0
scalar CloudDataCenterTS.appProc[0].server[0] droppedJobsTimout 0
scalar CloudDataCenterTS.appProc[0].server[0] droppedJobsTotal 0
scalar CloudDataCenterTS.appProc[0].delay[0] totalJobs 7
scalar CloudDataCenterTS.appProc[0].delay[0] droppedJobsTimout 0
scalar CloudDataCenterTS.appProc[0].delay[0] droppedJobsTotal 0
scalar CloudDataCenterTS.sink avg_responseTime_0 1.7197683939483
scalar CloudDataCenterTS.sink avg_delayTime_0 0.077577400258
scalar CloudDataCenterTS.sink avg_queuingTime_0 1.0057008664804
scalar CloudDataCenterTS.sink avg_serviceTime_0 0.63649012720986
scalar CloudDataCenterTS.sink p90_responseTime_0 0.494167267037
scalar CloudDataCenterTS.sink p90_delayTime_0 0.007368535547
scalar CloudDataCenterTS.sink p90_queuingTime_0 0
scalar CloudDataCenterTS.sink p90_serviceTime_0 0.435241894454

