version 2
run Fog-mul_10-rho_09-thr_5-1-20190714-07:03:48-107023
attr configname Fog-mul_10-rho_09-thr_5
attr datetime 20190714-07:03:48
attr experiment Fog-mul_10-rho_09-thr_5
attr inifile FogSequentialForward.ini
attr iterationvars ""
attr iterationvarsf ""
attr measurement ""
attr network FogSequentialForward
attr processid 107023
attr repetition 1
attr replication #1
attr resultdir results
attr runnumber 1
attr seedset 1
param FogSequentialForward.proctimeMul 1.0
param FogSequentialForward.rho 0.9
param FogSequentialForward.fog[*].dispatcher.thr 5
param FogSequentialForward.nSources 100
param FogSequentialForward.rho 0.9
param FogSequentialForward.proctimeMul 1.0
param FogSequentialForward.source[*].appId 1
param FogSequentialForward.source[*].realTime true
param FogSequentialForward.source[*].multiHop true
param FogSequentialForward.fog[*].nServers 1
param FogSequentialForward.fog[*].dispatcher.fanOut 1
param FogSequentialForward.fog[*].server[*].timeSlice -1s
param FogSequentialForward.fog[*].server[*].timeout -1s
param FogSequentialForward.fog[*].server[*].capacity 20
param FogSequentialForward.fog[*].server[*].fifo true
param FogSequentialForward.fog[*].server[*].maxServiceTime -1s
param FogSequentialForward.fog[*].dispatcher.thr 1

scalar FogSequentialForward.fog[0].dispatcher localJobs 14756
scalar FogSequentialForward.fog[0].dispatcher internalJobs 16270
scalar FogSequentialForward.fog[0].dispatcher externalJobs 6090664
scalar FogSequentialForward.fog[0].dispatcher remoteJobs 6090784
scalar FogSequentialForward.fog[0].dispatcher probeQueries 0
scalar FogSequentialForward.fog[0].dispatcher probeAnswers 0
scalar FogSequentialForward.fog[0].dispatcher droppedJobsSLA 1394
scalar FogSequentialForward.fog[0].dispatcher jobs_class_1 6106934
scalar FogSequentialForward.fog[0].dispatcher remoteJobs_class_1 6090784
scalar FogSequentialForward.fog[0].dispatcher localJobs_class_1 14756
scalar FogSequentialForward.fog[0].dispatcher droppedJobsSLA_class_1 1394
scalar FogSequentialForward.fog[0].server[0] rho 0.99998664855957
scalar FogSequentialForward.fog[0].server[0] congestionRatio 0
scalar FogSequentialForward.fog[0].server[0] totalJobs 14756
scalar FogSequentialForward.fog[0].server[0] droppedJobsQueue 736
scalar FogSequentialForward.fog[0].server[0] droppedJobsTimout 0
scalar FogSequentialForward.fog[0].server[0] droppedJobsSLA 9099
scalar FogSequentialForward.fog[0].server[0] droppedJobsTotal 9835
scalar FogSequentialForward.fog[1].dispatcher localJobs 14792
scalar FogSequentialForward.fog[1].dispatcher internalJobs 16366
scalar FogSequentialForward.fog[1].dispatcher externalJobs 6095400
scalar FogSequentialForward.fog[1].dispatcher remoteJobs 6095528
scalar FogSequentialForward.fog[1].dispatcher probeQueries 0
scalar FogSequentialForward.fog[1].dispatcher probeAnswers 0
scalar FogSequentialForward.fog[1].dispatcher droppedJobsSLA 1446
scalar FogSequentialForward.fog[1].dispatcher jobs_class_1 6111766
scalar FogSequentialForward.fog[1].dispatcher remoteJobs_class_1 6095528
scalar FogSequentialForward.fog[1].dispatcher localJobs_class_1 14792
scalar FogSequentialForward.fog[1].dispatcher droppedJobsSLA_class_1 1446
scalar FogSequentialForward.fog[1].server[0] rho 0.99998241662979
scalar FogSequentialForward.fog[1].server[0] congestionRatio 0
scalar FogSequentialForward.fog[1].server[0] totalJobs 14792
scalar FogSequentialForward.fog[1].server[0] droppedJobsQueue 737
scalar FogSequentialForward.fog[1].server[0] droppedJobsTimout 0
scalar FogSequentialForward.fog[1].server[0] droppedJobsSLA 9083
scalar FogSequentialForward.fog[1].server[0] droppedJobsTotal 9820
scalar FogSequentialForward.fog[2].dispatcher localJobs 14797
scalar FogSequentialForward.fog[2].dispatcher internalJobs 16274
scalar FogSequentialForward.fog[2].dispatcher externalJobs 6094027
scalar FogSequentialForward.fog[2].dispatcher remoteJobs 6094100
scalar FogSequentialForward.fog[2].dispatcher probeQueries 0
scalar FogSequentialForward.fog[2].dispatcher probeAnswers 0
scalar FogSequentialForward.fog[2].dispatcher droppedJobsSLA 1404
scalar FogSequentialForward.fog[2].dispatcher jobs_class_1 6110301
scalar FogSequentialForward.fog[2].dispatcher remoteJobs_class_1 6094100
scalar FogSequentialForward.fog[2].dispatcher localJobs_class_1 14797
scalar FogSequentialForward.fog[2].dispatcher droppedJobsSLA_class_1 1404
scalar FogSequentialForward.fog[2].server[0] rho 0.99998486042023
scalar FogSequentialForward.fog[2].server[0] congestionRatio 0
scalar FogSequentialForward.fog[2].server[0] totalJobs 14797
scalar FogSequentialForward.fog[2].server[0] droppedJobsQueue 738
scalar FogSequentialForward.fog[2].server[0] droppedJobsTimout 0
scalar FogSequentialForward.fog[2].server[0] droppedJobsSLA 9092
scalar FogSequentialForward.fog[2].server[0] droppedJobsTotal 9830
scalar FogSequentialForward.fog[3].dispatcher localJobs 14778
scalar FogSequentialForward.fog[3].dispatcher internalJobs 16363
scalar FogSequentialForward.fog[3].dispatcher externalJobs 6090719
scalar FogSequentialForward.fog[3].dispatcher remoteJobs 6090907
scalar FogSequentialForward.fog[3].dispatcher probeQueries 0
scalar FogSequentialForward.fog[3].dispatcher probeAnswers 0
scalar FogSequentialForward.fog[3].dispatcher droppedJobsSLA 1397
scalar FogSequentialForward.fog[3].dispatcher jobs_class_1 6107082
scalar FogSequentialForward.fog[3].dispatcher remoteJobs_class_1 6090907
scalar FogSequentialForward.fog[3].dispatcher localJobs_class_1 14778
scalar FogSequentialForward.fog[3].dispatcher droppedJobsSLA_class_1 1397
scalar FogSequentialForward.fog[3].server[0] rho 0.99998795986176
scalar FogSequentialForward.fog[3].server[0] congestionRatio 0
scalar FogSequentialForward.fog[3].server[0] totalJobs 14778
scalar FogSequentialForward.fog[3].server[0] droppedJobsQueue 738
scalar FogSequentialForward.fog[3].server[0] droppedJobsTimout 0
scalar FogSequentialForward.fog[3].server[0] droppedJobsSLA 9075
scalar FogSequentialForward.fog[3].server[0] droppedJobsTotal 9813
scalar FogSequentialForward.fog[4].dispatcher localJobs 14764
scalar FogSequentialForward.fog[4].dispatcher internalJobs 16294
scalar FogSequentialForward.fog[4].dispatcher externalJobs 6090812
scalar FogSequentialForward.fog[4].dispatcher remoteJobs 6090925
scalar FogSequentialForward.fog[4].dispatcher probeQueries 0
scalar FogSequentialForward.fog[4].dispatcher probeAnswers 0
scalar FogSequentialForward.fog[4].dispatcher droppedJobsSLA 1417
scalar FogSequentialForward.fog[4].dispatcher jobs_class_1 6107106
scalar FogSequentialForward.fog[4].dispatcher remoteJobs_class_1 6090925
scalar FogSequentialForward.fog[4].dispatcher localJobs_class_1 14764
scalar FogSequentialForward.fog[4].dispatcher droppedJobsSLA_class_1 1417
scalar FogSequentialForward.fog[4].server[0] rho 0.99998563528061
scalar FogSequentialForward.fog[4].server[0] congestionRatio 0
scalar FogSequentialForward.fog[4].server[0] totalJobs 14764
scalar FogSequentialForward.fog[4].server[0] droppedJobsQueue 738
scalar FogSequentialForward.fog[4].server[0] droppedJobsTimout 0
scalar FogSequentialForward.fog[4].server[0] droppedJobsSLA 8986
scalar FogSequentialForward.fog[4].server[0] droppedJobsTotal 9724
scalar FogSequentialForward.fog[5].dispatcher localJobs 14773
scalar FogSequentialForward.fog[5].dispatcher internalJobs 16082
scalar FogSequentialForward.fog[5].dispatcher externalJobs 6090290
scalar FogSequentialForward.fog[5].dispatcher remoteJobs 6090128
scalar FogSequentialForward.fog[5].dispatcher probeQueries 0
scalar FogSequentialForward.fog[5].dispatcher probeAnswers 0
scalar FogSequentialForward.fog[5].dispatcher droppedJobsSLA 1471
scalar FogSequentialForward.fog[5].dispatcher jobs_class_1 6106372
scalar FogSequentialForward.fog[5].dispatcher remoteJobs_class_1 6090128
scalar FogSequentialForward.fog[5].dispatcher localJobs_class_1 14773
scalar FogSequentialForward.fog[5].dispatcher droppedJobsSLA_class_1 1471
scalar FogSequentialForward.fog[5].server[0] rho 0.99996948242188
scalar FogSequentialForward.fog[5].server[0] congestionRatio 0
scalar FogSequentialForward.fog[5].server[0] totalJobs 14773
scalar FogSequentialForward.fog[5].server[0] droppedJobsQueue 739
scalar FogSequentialForward.fog[5].server[0] droppedJobsTimout 0
scalar FogSequentialForward.fog[5].server[0] droppedJobsSLA 9062
scalar FogSequentialForward.fog[5].server[0] droppedJobsTotal 9801
scalar FogSequentialForward.fog[6].dispatcher localJobs 14779
scalar FogSequentialForward.fog[6].dispatcher internalJobs 16111
scalar FogSequentialForward.fog[6].dispatcher externalJobs 6089706
scalar FogSequentialForward.fog[6].dispatcher remoteJobs 6089641
scalar FogSequentialForward.fog[6].dispatcher probeQueries 0
scalar FogSequentialForward.fog[6].dispatcher probeAnswers 0
scalar FogSequentialForward.fog[6].dispatcher droppedJobsSLA 1397
scalar FogSequentialForward.fog[6].dispatcher jobs_class_1 6105817
scalar FogSequentialForward.fog[6].dispatcher remoteJobs_class_1 6089641
scalar FogSequentialForward.fog[6].dispatcher localJobs_class_1 14779
scalar FogSequentialForward.fog[6].dispatcher droppedJobsSLA_class_1 1397
scalar FogSequentialForward.fog[6].server[0] rho 0.99998515844345
scalar FogSequentialForward.fog[6].server[0] congestionRatio 0
scalar FogSequentialForward.fog[6].server[0] totalJobs 14779
scalar FogSequentialForward.fog[6].server[0] droppedJobsQueue 734
scalar FogSequentialForward.fog[6].server[0] droppedJobsTimout 0
scalar FogSequentialForward.fog[6].server[0] droppedJobsSLA 9066
scalar FogSequentialForward.fog[6].server[0] droppedJobsTotal 9800
scalar FogSequentialForward.fog[7].dispatcher localJobs 14800
scalar FogSequentialForward.fog[7].dispatcher internalJobs 16264
scalar FogSequentialForward.fog[7].dispatcher externalJobs 6092543
scalar FogSequentialForward.fog[7].dispatcher remoteJobs 6092591
scalar FogSequentialForward.fog[7].dispatcher probeQueries 0
scalar FogSequentialForward.fog[7].dispatcher probeAnswers 0
scalar FogSequentialForward.fog[7].dispatcher droppedJobsSLA 1416
scalar FogSequentialForward.fog[7].dispatcher jobs_class_1 6108807
scalar FogSequentialForward.fog[7].dispatcher remoteJobs_class_1 6092591
scalar FogSequentialForward.fog[7].dispatcher localJobs_class_1 14800
scalar FogSequentialForward.fog[7].dispatcher droppedJobsSLA_class_1 1416
scalar FogSequentialForward.fog[7].server[0] rho 0.99998611211777
scalar FogSequentialForward.fog[7].server[0] congestionRatio 0
scalar FogSequentialForward.fog[7].server[0] totalJobs 14800
scalar FogSequentialForward.fog[7].server[0] droppedJobsQueue 735
scalar FogSequentialForward.fog[7].server[0] droppedJobsTimout 0
scalar FogSequentialForward.fog[7].server[0] droppedJobsSLA 9075
scalar FogSequentialForward.fog[7].server[0] droppedJobsTotal 9810
scalar FogSequentialForward.fog[8].dispatcher localJobs 14769
scalar FogSequentialForward.fog[8].dispatcher internalJobs 15991
scalar FogSequentialForward.fog[8].dispatcher externalJobs 6092011
scalar FogSequentialForward.fog[8].dispatcher remoteJobs 6091793
scalar FogSequentialForward.fog[8].dispatcher probeQueries 0
scalar FogSequentialForward.fog[8].dispatcher probeAnswers 0
scalar FogSequentialForward.fog[8].dispatcher droppedJobsSLA 1440
scalar FogSequentialForward.fog[8].dispatcher jobs_class_1 6108002
scalar FogSequentialForward.fog[8].dispatcher remoteJobs_class_1 6091793
scalar FogSequentialForward.fog[8].dispatcher localJobs_class_1 14769
scalar FogSequentialForward.fog[8].dispatcher droppedJobsSLA_class_1 1440
scalar FogSequentialForward.fog[8].server[0] rho 0.99998933076859
scalar FogSequentialForward.fog[8].server[0] congestionRatio 0
scalar FogSequentialForward.fog[8].server[0] totalJobs 14769
scalar FogSequentialForward.fog[8].server[0] droppedJobsQueue 737
scalar FogSequentialForward.fog[8].server[0] droppedJobsTimout 0
scalar FogSequentialForward.fog[8].server[0] droppedJobsSLA 9084
scalar FogSequentialForward.fog[8].server[0] droppedJobsTotal 9821
scalar FogSequentialForward.fog[9].dispatcher localJobs 14783
scalar FogSequentialForward.fog[9].dispatcher internalJobs 16389
scalar FogSequentialForward.fog[9].dispatcher externalJobs 6091280
scalar FogSequentialForward.fog[9].dispatcher remoteJobs 6091446
scalar FogSequentialForward.fog[9].dispatcher probeQueries 0
scalar FogSequentialForward.fog[9].dispatcher probeAnswers 0
scalar FogSequentialForward.fog[9].dispatcher droppedJobsSLA 1440
scalar FogSequentialForward.fog[9].dispatcher jobs_class_1 6107669
scalar FogSequentialForward.fog[9].dispatcher remoteJobs_class_1 6091446
scalar FogSequentialForward.fog[9].dispatcher localJobs_class_1 14783
scalar FogSequentialForward.fog[9].dispatcher droppedJobsSLA_class_1 1440
scalar FogSequentialForward.fog[9].server[0] rho 0.99998539686203
scalar FogSequentialForward.fog[9].server[0] congestionRatio 0
scalar FogSequentialForward.fog[9].server[0] totalJobs 14783
scalar FogSequentialForward.fog[9].server[0] droppedJobsQueue 736
scalar FogSequentialForward.fog[9].server[0] droppedJobsTimout 0
scalar FogSequentialForward.fog[9].server[0] droppedJobsSLA 9085
scalar FogSequentialForward.fog[9].server[0] droppedJobsTotal 9821
scalar FogSequentialForward.fog[10].dispatcher localJobs 14791
scalar FogSequentialForward.fog[10].dispatcher internalJobs 16093
scalar FogSequentialForward.fog[10].dispatcher externalJobs 6095280
scalar FogSequentialForward.fog[10].dispatcher remoteJobs 6095155
scalar FogSequentialForward.fog[10].dispatcher probeQueries 0
scalar FogSequentialForward.fog[10].dispatcher probeAnswers 0
scalar FogSequentialForward.fog[10].dispatcher droppedJobsSLA 1427
scalar FogSequentialForward.fog[10].dispatcher jobs_class_1 6111373
scalar FogSequentialForward.fog[10].dispatcher remoteJobs_class_1 6095155
scalar FogSequentialForward.fog[10].dispatcher localJobs_class_1 14791
scalar FogSequentialForward.fog[10].dispatcher droppedJobsSLA_class_1 1427
scalar FogSequentialForward.fog[10].server[0] rho 0.99998563528061
scalar FogSequentialForward.fog[10].server[0] congestionRatio 0
scalar FogSequentialForward.fog[10].server[0] totalJobs 14791
scalar FogSequentialForward.fog[10].server[0] droppedJobsQueue 737
scalar FogSequentialForward.fog[10].server[0] droppedJobsTimout 0
scalar FogSequentialForward.fog[10].server[0] droppedJobsSLA 9114
scalar FogSequentialForward.fog[10].server[0] droppedJobsTotal 9851
scalar FogSequentialForward.fog[11].dispatcher localJobs 14800
scalar FogSequentialForward.fog[11].dispatcher internalJobs 16012
scalar FogSequentialForward.fog[11].dispatcher externalJobs 6092187
scalar FogSequentialForward.fog[11].dispatcher remoteJobs 6091951
scalar FogSequentialForward.fog[11].dispatcher probeQueries 0
scalar FogSequentialForward.fog[11].dispatcher probeAnswers 0
scalar FogSequentialForward.fog[11].dispatcher droppedJobsSLA 1448
scalar FogSequentialForward.fog[11].dispatcher jobs_class_1 6108199
scalar FogSequentialForward.fog[11].dispatcher remoteJobs_class_1 6091951
scalar FogSequentialForward.fog[11].dispatcher localJobs_class_1 14800
scalar FogSequentialForward.fog[11].dispatcher droppedJobsSLA_class_1 1448
scalar FogSequentialForward.fog[11].server[0] rho 0.99998766183853
scalar FogSequentialForward.fog[11].server[0] congestionRatio 0
scalar FogSequentialForward.fog[11].server[0] totalJobs 14800
scalar FogSequentialForward.fog[11].server[0] droppedJobsQueue 738
scalar FogSequentialForward.fog[11].server[0] droppedJobsTimout 0
scalar FogSequentialForward.fog[11].server[0] droppedJobsSLA 9120
scalar FogSequentialForward.fog[11].server[0] droppedJobsTotal 9858
scalar FogSequentialForward.fog[12].dispatcher localJobs 14770
scalar FogSequentialForward.fog[12].dispatcher internalJobs 16196
scalar FogSequentialForward.fog[12].dispatcher externalJobs 6091702
scalar FogSequentialForward.fog[12].dispatcher remoteJobs 6091729
scalar FogSequentialForward.fog[12].dispatcher probeQueries 0
scalar FogSequentialForward.fog[12].dispatcher probeAnswers 0
scalar FogSequentialForward.fog[12].dispatcher droppedJobsSLA 1399
scalar FogSequentialForward.fog[12].dispatcher jobs_class_1 6107898
scalar FogSequentialForward.fog[12].dispatcher remoteJobs_class_1 6091729
scalar FogSequentialForward.fog[12].dispatcher localJobs_class_1 14770
scalar FogSequentialForward.fog[12].dispatcher droppedJobsSLA_class_1 1399
scalar FogSequentialForward.fog[12].server[0] rho 0.99998712539673
scalar FogSequentialForward.fog[12].server[0] congestionRatio 0
scalar FogSequentialForward.fog[12].server[0] totalJobs 14770
scalar FogSequentialForward.fog[12].server[0] droppedJobsQueue 738
scalar FogSequentialForward.fog[12].server[0] droppedJobsTimout 0
scalar FogSequentialForward.fog[12].server[0] droppedJobsSLA 9088
scalar FogSequentialForward.fog[12].server[0] droppedJobsTotal 9826
scalar FogSequentialForward.fog[13].dispatcher localJobs 14771
scalar FogSequentialForward.fog[13].dispatcher internalJobs 16597
scalar FogSequentialForward.fog[13].dispatcher externalJobs 6089304
scalar FogSequentialForward.fog[13].dispatcher remoteJobs 6089630
scalar FogSequentialForward.fog[13].dispatcher probeQueries 0
scalar FogSequentialForward.fog[13].dispatcher probeAnswers 0
scalar FogSequentialForward.fog[13].dispatcher droppedJobsSLA 1500
scalar FogSequentialForward.fog[13].dispatcher jobs_class_1 6105901
scalar FogSequentialForward.fog[13].dispatcher remoteJobs_class_1 6089630
scalar FogSequentialForward.fog[13].dispatcher localJobs_class_1 14771
scalar FogSequentialForward.fog[13].dispatcher droppedJobsSLA_class_1 1500
scalar FogSequentialForward.fog[13].server[0] rho 0.99998563528061
scalar FogSequentialForward.fog[13].server[0] congestionRatio 0
scalar FogSequentialForward.fog[13].server[0] totalJobs 14771
scalar FogSequentialForward.fog[13].server[0] droppedJobsQueue 738
scalar FogSequentialForward.fog[13].server[0] droppedJobsTimout 0
scalar FogSequentialForward.fog[13].server[0] droppedJobsSLA 9077
scalar FogSequentialForward.fog[13].server[0] droppedJobsTotal 9815
scalar FogSequentialForward.fog[14].dispatcher localJobs 14789
scalar FogSequentialForward.fog[14].dispatcher internalJobs 15965
scalar FogSequentialForward.fog[14].dispatcher externalJobs 6086627
scalar FogSequentialForward.fog[14].dispatcher remoteJobs 6086390
scalar FogSequentialForward.fog[14].dispatcher probeQueries 0
scalar FogSequentialForward.fog[14].dispatcher probeAnswers 0
scalar FogSequentialForward.fog[14].dispatcher droppedJobsSLA 1413
scalar FogSequentialForward.fog[14].dispatcher jobs_class_1 6102592
scalar FogSequentialForward.fog[14].dispatcher remoteJobs_class_1 6086390
scalar FogSequentialForward.fog[14].dispatcher localJobs_class_1 14789
scalar FogSequentialForward.fog[14].dispatcher droppedJobsSLA_class_1 1413
scalar FogSequentialForward.fog[14].server[0] rho 0.99998289346695
scalar FogSequentialForward.fog[14].server[0] congestionRatio 0
scalar FogSequentialForward.fog[14].server[0] totalJobs 14789
scalar FogSequentialForward.fog[14].server[0] droppedJobsQueue 737
scalar FogSequentialForward.fog[14].server[0] droppedJobsTimout 0
scalar FogSequentialForward.fog[14].server[0] droppedJobsSLA 9113
scalar FogSequentialForward.fog[14].server[0] droppedJobsTotal 9850
scalar FogSequentialForward.fog[15].dispatcher localJobs 14758
scalar FogSequentialForward.fog[15].dispatcher internalJobs 16305
scalar FogSequentialForward.fog[15].dispatcher externalJobs 6095343
scalar FogSequentialForward.fog[15].dispatcher remoteJobs 6095434
scalar FogSequentialForward.fog[15].dispatcher probeQueries 0
scalar FogSequentialForward.fog[15].dispatcher probeAnswers 0
scalar FogSequentialForward.fog[15].dispatcher droppedJobsSLA 1456
scalar FogSequentialForward.fog[15].dispatcher jobs_class_1 6111648
scalar FogSequentialForward.fog[15].dispatcher remoteJobs_class_1 6095434
scalar FogSequentialForward.fog[15].dispatcher localJobs_class_1 14758
scalar FogSequentialForward.fog[15].dispatcher droppedJobsSLA_class_1 1456
scalar FogSequentialForward.fog[15].server[0] rho 0.99998635053635
scalar FogSequentialForward.fog[15].server[0] congestionRatio 0
scalar FogSequentialForward.fog[15].server[0] totalJobs 14758
scalar FogSequentialForward.fog[15].server[0] droppedJobsQueue 735
scalar FogSequentialForward.fog[15].server[0] droppedJobsTimout 0
scalar FogSequentialForward.fog[15].server[0] droppedJobsSLA 9130
scalar FogSequentialForward.fog[15].server[0] droppedJobsTotal 9865
scalar FogSequentialForward.fog[16].dispatcher localJobs 14765
scalar FogSequentialForward.fog[16].dispatcher internalJobs 16279
scalar FogSequentialForward.fog[16].dispatcher externalJobs 6089925
scalar FogSequentialForward.fog[16].dispatcher remoteJobs 6089953
scalar FogSequentialForward.fog[16].dispatcher probeQueries 0
scalar FogSequentialForward.fog[16].dispatcher probeAnswers 0
scalar FogSequentialForward.fog[16].dispatcher droppedJobsSLA 1486
scalar FogSequentialForward.fog[16].dispatcher jobs_class_1 6106204
scalar FogSequentialForward.fog[16].dispatcher remoteJobs_class_1 6089953
scalar FogSequentialForward.fog[16].dispatcher localJobs_class_1 14765
scalar FogSequentialForward.fog[16].dispatcher droppedJobsSLA_class_1 1486
scalar FogSequentialForward.fog[16].server[0] rho 0.99998754262924
scalar FogSequentialForward.fog[16].server[0] congestionRatio 0
scalar FogSequentialForward.fog[16].server[0] totalJobs 14765
scalar FogSequentialForward.fog[16].server[0] droppedJobsQueue 737
scalar FogSequentialForward.fog[16].server[0] droppedJobsTimout 0
scalar FogSequentialForward.fog[16].server[0] droppedJobsSLA 9033
scalar FogSequentialForward.fog[16].server[0] droppedJobsTotal 9770
scalar FogSequentialForward.fog[17].dispatcher localJobs 14815
scalar FogSequentialForward.fog[17].dispatcher internalJobs 16255
scalar FogSequentialForward.fog[17].dispatcher externalJobs 6089344
scalar FogSequentialForward.fog[17].dispatcher remoteJobs 6089397
scalar FogSequentialForward.fog[17].dispatcher probeQueries 0
scalar FogSequentialForward.fog[17].dispatcher probeAnswers 0
scalar FogSequentialForward.fog[17].dispatcher droppedJobsSLA 1387
scalar FogSequentialForward.fog[17].dispatcher jobs_class_1 6105599
scalar FogSequentialForward.fog[17].dispatcher remoteJobs_class_1 6089397
scalar FogSequentialForward.fog[17].dispatcher localJobs_class_1 14815
scalar FogSequentialForward.fog[17].dispatcher droppedJobsSLA_class_1 1387
scalar FogSequentialForward.fog[17].server[0] rho 0.99998813867569
scalar FogSequentialForward.fog[17].server[0] congestionRatio 0
scalar FogSequentialForward.fog[17].server[0] totalJobs 14815
scalar FogSequentialForward.fog[17].server[0] droppedJobsQueue 738
scalar FogSequentialForward.fog[17].server[0] droppedJobsTimout 0
scalar FogSequentialForward.fog[17].server[0] droppedJobsSLA 9088
scalar FogSequentialForward.fog[17].server[0] droppedJobsTotal 9826
scalar FogSequentialForward.fog[18].dispatcher localJobs 14817
scalar FogSequentialForward.fog[18].dispatcher internalJobs 16256
scalar FogSequentialForward.fog[18].dispatcher externalJobs 6092594
scalar FogSequentialForward.fog[18].dispatcher remoteJobs 6092585
scalar FogSequentialForward.fog[18].dispatcher probeQueries 0
scalar FogSequentialForward.fog[18].dispatcher probeAnswers 0
scalar FogSequentialForward.fog[18].dispatcher droppedJobsSLA 1448
scalar FogSequentialForward.fog[18].dispatcher jobs_class_1 6108850
scalar FogSequentialForward.fog[18].dispatcher remoteJobs_class_1 6092585
scalar FogSequentialForward.fog[18].dispatcher localJobs_class_1 14817
scalar FogSequentialForward.fog[18].dispatcher droppedJobsSLA_class_1 1448
scalar FogSequentialForward.fog[18].server[0] rho 0.99998337030411
scalar FogSequentialForward.fog[18].server[0] congestionRatio 0
scalar FogSequentialForward.fog[18].server[0] totalJobs 14817
scalar FogSequentialForward.fog[18].server[0] droppedJobsQueue 738
scalar FogSequentialForward.fog[18].server[0] droppedJobsTimout 0
scalar FogSequentialForward.fog[18].server[0] droppedJobsSLA 9096
scalar FogSequentialForward.fog[18].server[0] droppedJobsTotal 9834
scalar FogSequentialForward.fog[19].dispatcher localJobs 14816
scalar FogSequentialForward.fog[19].dispatcher internalJobs 16362
scalar FogSequentialForward.fog[19].dispatcher externalJobs 6092481
scalar FogSequentialForward.fog[19].dispatcher remoteJobs 6092580
scalar FogSequentialForward.fog[19].dispatcher probeQueries 0
scalar FogSequentialForward.fog[19].dispatcher probeAnswers 0
scalar FogSequentialForward.fog[19].dispatcher droppedJobsSLA 1447
scalar FogSequentialForward.fog[19].dispatcher jobs_class_1 6108843
scalar FogSequentialForward.fog[19].dispatcher remoteJobs_class_1 6092580
scalar FogSequentialForward.fog[19].dispatcher localJobs_class_1 14816
scalar FogSequentialForward.fog[19].dispatcher droppedJobsSLA_class_1 1447
scalar FogSequentialForward.fog[19].server[0] rho 0.99998933076859
scalar FogSequentialForward.fog[19].server[0] congestionRatio 0
scalar FogSequentialForward.fog[19].server[0] totalJobs 14816
scalar FogSequentialForward.fog[19].server[0] droppedJobsQueue 737
scalar FogSequentialForward.fog[19].server[0] droppedJobsTimout 0
scalar FogSequentialForward.fog[19].server[0] droppedJobsSLA 9152
scalar FogSequentialForward.fog[19].server[0] droppedJobsTotal 9889
scalar FogSequentialForward.fog[20].dispatcher localJobs 14774
scalar FogSequentialForward.fog[20].dispatcher internalJobs 16351
scalar FogSequentialForward.fog[20].dispatcher externalJobs 6095238
scalar FogSequentialForward.fog[20].dispatcher remoteJobs 6095352
scalar FogSequentialForward.fog[20].dispatcher probeQueries 0
scalar FogSequentialForward.fog[20].dispatcher probeAnswers 0
scalar FogSequentialForward.fog[20].dispatcher droppedJobsSLA 1463
scalar FogSequentialForward.fog[20].dispatcher jobs_class_1 6111589
scalar FogSequentialForward.fog[20].dispatcher remoteJobs_class_1 6095352
scalar FogSequentialForward.fog[20].dispatcher localJobs_class_1 14774
scalar FogSequentialForward.fog[20].dispatcher droppedJobsSLA_class_1 1463
scalar FogSequentialForward.fog[20].server[0] rho 0.99998825788498
scalar FogSequentialForward.fog[20].server[0] congestionRatio 0
scalar FogSequentialForward.fog[20].server[0] totalJobs 14774
scalar FogSequentialForward.fog[20].server[0] droppedJobsQueue 739
scalar FogSequentialForward.fog[20].server[0] droppedJobsTimout 0
scalar FogSequentialForward.fog[20].server[0] droppedJobsSLA 9122
scalar FogSequentialForward.fog[20].server[0] droppedJobsTotal 9861
scalar FogSequentialForward.fog[21].dispatcher localJobs 14778
scalar FogSequentialForward.fog[21].dispatcher internalJobs 16317
scalar FogSequentialForward.fog[21].dispatcher externalJobs 6091755
scalar FogSequentialForward.fog[21].dispatcher remoteJobs 6091904
scalar FogSequentialForward.fog[21].dispatcher probeQueries 0
scalar FogSequentialForward.fog[21].dispatcher probeAnswers 0
scalar FogSequentialForward.fog[21].dispatcher droppedJobsSLA 1390
scalar FogSequentialForward.fog[21].dispatcher jobs_class_1 6108072
scalar FogSequentialForward.fog[21].dispatcher remoteJobs_class_1 6091904
scalar FogSequentialForward.fog[21].dispatcher localJobs_class_1 14778
scalar FogSequentialForward.fog[21].dispatcher droppedJobsSLA_class_1 1390
scalar FogSequentialForward.fog[21].server[0] rho 0.99998438358307
scalar FogSequentialForward.fog[21].server[0] congestionRatio 0
scalar FogSequentialForward.fog[21].server[0] totalJobs 14778
scalar FogSequentialForward.fog[21].server[0] droppedJobsQueue 735
scalar FogSequentialForward.fog[21].server[0] droppedJobsTimout 0
scalar FogSequentialForward.fog[21].server[0] droppedJobsSLA 9086
scalar FogSequentialForward.fog[21].server[0] droppedJobsTotal 9821
scalar FogSequentialForward.fog[22].dispatcher localJobs 14777
scalar FogSequentialForward.fog[22].dispatcher internalJobs 16357
scalar FogSequentialForward.fog[22].dispatcher externalJobs 6094638
scalar FogSequentialForward.fog[22].dispatcher remoteJobs 6094778
scalar FogSequentialForward.fog[22].dispatcher probeQueries 0
scalar FogSequentialForward.fog[22].dispatcher probeAnswers 0
scalar FogSequentialForward.fog[22].dispatcher droppedJobsSLA 1440
scalar FogSequentialForward.fog[22].dispatcher jobs_class_1 6110995
scalar FogSequentialForward.fog[22].dispatcher remoteJobs_class_1 6094778
scalar FogSequentialForward.fog[22].dispatcher localJobs_class_1 14777
scalar FogSequentialForward.fog[22].dispatcher droppedJobsSLA_class_1 1440
scalar FogSequentialForward.fog[22].server[0] rho 0.99998700618744
scalar FogSequentialForward.fog[22].server[0] congestionRatio 0
scalar FogSequentialForward.fog[22].server[0] totalJobs 14777
scalar FogSequentialForward.fog[22].server[0] droppedJobsQueue 738
scalar FogSequentialForward.fog[22].server[0] droppedJobsTimout 0
scalar FogSequentialForward.fog[22].server[0] droppedJobsSLA 9106
scalar FogSequentialForward.fog[22].server[0] droppedJobsTotal 9844
scalar FogSequentialForward.fog[23].dispatcher localJobs 14807
scalar FogSequentialForward.fog[23].dispatcher internalJobs 16386
scalar FogSequentialForward.fog[23].dispatcher externalJobs 6093615
scalar FogSequentialForward.fog[23].dispatcher remoteJobs 6093714
scalar FogSequentialForward.fog[23].dispatcher probeQueries 0
scalar FogSequentialForward.fog[23].dispatcher probeAnswers 0
scalar FogSequentialForward.fog[23].dispatcher droppedJobsSLA 1480
scalar FogSequentialForward.fog[23].dispatcher jobs_class_1 6110001
scalar FogSequentialForward.fog[23].dispatcher remoteJobs_class_1 6093714
scalar FogSequentialForward.fog[23].dispatcher localJobs_class_1 14807
scalar FogSequentialForward.fog[23].dispatcher droppedJobsSLA_class_1 1480
scalar FogSequentialForward.fog[23].server[0] rho 0.9999862909317
scalar FogSequentialForward.fog[23].server[0] congestionRatio 0
scalar FogSequentialForward.fog[23].server[0] totalJobs 14807
scalar FogSequentialForward.fog[23].server[0] droppedJobsQueue 737
scalar FogSequentialForward.fog[23].server[0] droppedJobsTimout 0
scalar FogSequentialForward.fog[23].server[0] droppedJobsSLA 9096
scalar FogSequentialForward.fog[23].server[0] droppedJobsTotal 9833
scalar FogSequentialForward.fog[24].dispatcher localJobs 14778
scalar FogSequentialForward.fog[24].dispatcher internalJobs 16172
scalar FogSequentialForward.fog[24].dispatcher externalJobs 6087499
scalar FogSequentialForward.fog[24].dispatcher remoteJobs 6087419
scalar FogSequentialForward.fog[24].dispatcher probeQueries 0
scalar FogSequentialForward.fog[24].dispatcher probeAnswers 0
scalar FogSequentialForward.fog[24].dispatcher droppedJobsSLA 1474
scalar FogSequentialForward.fog[24].dispatcher jobs_class_1 6103671
scalar FogSequentialForward.fog[24].dispatcher remoteJobs_class_1 6087419
scalar FogSequentialForward.fog[24].dispatcher localJobs_class_1 14778
scalar FogSequentialForward.fog[24].dispatcher droppedJobsSLA_class_1 1474
scalar FogSequentialForward.fog[24].server[0] rho 0.99998843669891
scalar FogSequentialForward.fog[24].server[0] congestionRatio 0
scalar FogSequentialForward.fog[24].server[0] totalJobs 14778
scalar FogSequentialForward.fog[24].server[0] droppedJobsQueue 738
scalar FogSequentialForward.fog[24].server[0] droppedJobsTimout 0
scalar FogSequentialForward.fog[24].server[0] droppedJobsSLA 9102
scalar FogSequentialForward.fog[24].server[0] droppedJobsTotal 9840
scalar FogSequentialForward.fog[25].dispatcher localJobs 14761
scalar FogSequentialForward.fog[25].dispatcher internalJobs 16354
scalar FogSequentialForward.fog[25].dispatcher externalJobs 6086374
scalar FogSequentialForward.fog[25].dispatcher remoteJobs 6086517
scalar FogSequentialForward.fog[25].dispatcher probeQueries 0
scalar FogSequentialForward.fog[25].dispatcher probeAnswers 0
scalar FogSequentialForward.fog[25].dispatcher droppedJobsSLA 1450
scalar FogSequentialForward.fog[25].dispatcher jobs_class_1 6102728
scalar FogSequentialForward.fog[25].dispatcher remoteJobs_class_1 6086517
scalar FogSequentialForward.fog[25].dispatcher localJobs_class_1 14761
scalar FogSequentialForward.fog[25].dispatcher droppedJobsSLA_class_1 1450
scalar FogSequentialForward.fog[25].server[0] rho 0.99998968839645
scalar FogSequentialForward.fog[25].server[0] congestionRatio 0
scalar FogSequentialForward.fog[25].server[0] totalJobs 14761
scalar FogSequentialForward.fog[25].server[0] droppedJobsQueue 737
scalar FogSequentialForward.fog[25].server[0] droppedJobsTimout 0
scalar FogSequentialForward.fog[25].server[0] droppedJobsSLA 9079
scalar FogSequentialForward.fog[25].server[0] droppedJobsTotal 9816
scalar FogSequentialForward.fog[26].dispatcher localJobs 14815
scalar FogSequentialForward.fog[26].dispatcher internalJobs 16206
scalar FogSequentialForward.fog[26].dispatcher externalJobs 6089307
scalar FogSequentialForward.fog[26].dispatcher remoteJobs 6089302
scalar FogSequentialForward.fog[26].dispatcher probeQueries 0
scalar FogSequentialForward.fog[26].dispatcher probeAnswers 0
scalar FogSequentialForward.fog[26].dispatcher droppedJobsSLA 1396
scalar FogSequentialForward.fog[26].dispatcher jobs_class_1 6105513
scalar FogSequentialForward.fog[26].dispatcher remoteJobs_class_1 6089302
scalar FogSequentialForward.fog[26].dispatcher localJobs_class_1 14815
scalar FogSequentialForward.fog[26].dispatcher droppedJobsSLA_class_1 1396
scalar FogSequentialForward.fog[26].server[0] rho 0.99986129999161
scalar FogSequentialForward.fog[26].server[0] congestionRatio 0
scalar FogSequentialForward.fog[26].server[0] totalJobs 14815
scalar FogSequentialForward.fog[26].server[0] droppedJobsQueue 741
scalar FogSequentialForward.fog[26].server[0] droppedJobsTimout 0
scalar FogSequentialForward.fog[26].server[0] droppedJobsSLA 9089
scalar FogSequentialForward.fog[26].server[0] droppedJobsTotal 9830
scalar FogSequentialForward.fog[27].dispatcher localJobs 14851
scalar FogSequentialForward.fog[27].dispatcher internalJobs 16078
scalar FogSequentialForward.fog[27].dispatcher externalJobs 6091138
scalar FogSequentialForward.fog[27].dispatcher remoteJobs 6090944
scalar FogSequentialForward.fog[27].dispatcher probeQueries 0
scalar FogSequentialForward.fog[27].dispatcher probeAnswers 0
scalar FogSequentialForward.fog[27].dispatcher droppedJobsSLA 1421
scalar FogSequentialForward.fog[27].dispatcher jobs_class_1 6107216
scalar FogSequentialForward.fog[27].dispatcher remoteJobs_class_1 6090944
scalar FogSequentialForward.fog[27].dispatcher localJobs_class_1 14851
scalar FogSequentialForward.fog[27].dispatcher droppedJobsSLA_class_1 1421
scalar FogSequentialForward.fog[27].server[0] rho 0.99998956918716
scalar FogSequentialForward.fog[27].server[0] congestionRatio 0
scalar FogSequentialForward.fog[27].server[0] totalJobs 14851
scalar FogSequentialForward.fog[27].server[0] droppedJobsQueue 742
scalar FogSequentialForward.fog[27].server[0] droppedJobsTimout 0
scalar FogSequentialForward.fog[27].server[0] droppedJobsSLA 9127
scalar FogSequentialForward.fog[27].server[0] droppedJobsTotal 9869
scalar FogSequentialForward.fog[28].dispatcher localJobs 14813
scalar FogSequentialForward.fog[28].dispatcher internalJobs 16277
scalar FogSequentialForward.fog[28].dispatcher externalJobs 6090571
scalar FogSequentialForward.fog[28].dispatcher remoteJobs 6090561
scalar FogSequentialForward.fog[28].dispatcher probeQueries 0
scalar FogSequentialForward.fog[28].dispatcher probeAnswers 0
scalar FogSequentialForward.fog[28].dispatcher droppedJobsSLA 1474
scalar FogSequentialForward.fog[28].dispatcher jobs_class_1 6106848
scalar FogSequentialForward.fog[28].dispatcher remoteJobs_class_1 6090561
scalar FogSequentialForward.fog[28].dispatcher localJobs_class_1 14813
scalar FogSequentialForward.fog[28].dispatcher droppedJobsSLA_class_1 1474
scalar FogSequentialForward.fog[28].server[0] rho 0.99998313188553
scalar FogSequentialForward.fog[28].server[0] congestionRatio 0
scalar FogSequentialForward.fog[28].server[0] totalJobs 14813
scalar FogSequentialForward.fog[28].server[0] droppedJobsQueue 735
scalar FogSequentialForward.fog[28].server[0] droppedJobsTimout 0
scalar FogSequentialForward.fog[28].server[0] droppedJobsSLA 9081
scalar FogSequentialForward.fog[28].server[0] droppedJobsTotal 9816
scalar FogSequentialForward.fog[29].dispatcher localJobs 14776
scalar FogSequentialForward.fog[29].dispatcher internalJobs 16123
scalar FogSequentialForward.fog[29].dispatcher externalJobs 6093628
scalar FogSequentialForward.fog[29].dispatcher remoteJobs 6093563
scalar FogSequentialForward.fog[29].dispatcher probeQueries 0
scalar FogSequentialForward.fog[29].dispatcher probeAnswers 0
scalar FogSequentialForward.fog[29].dispatcher droppedJobsSLA 1412
scalar FogSequentialForward.fog[29].dispatcher jobs_class_1 6109751
scalar FogSequentialForward.fog[29].dispatcher remoteJobs_class_1 6093563
scalar FogSequentialForward.fog[29].dispatcher localJobs_class_1 14776
scalar FogSequentialForward.fog[29].dispatcher droppedJobsSLA_class_1 1412
scalar FogSequentialForward.fog[29].server[0] rho 0.99999064207077
scalar FogSequentialForward.fog[29].server[0] congestionRatio 0
scalar FogSequentialForward.fog[29].server[0] totalJobs 14776
scalar FogSequentialForward.fog[29].server[0] droppedJobsQueue 739
scalar FogSequentialForward.fog[29].server[0] droppedJobsTimout 0
scalar FogSequentialForward.fog[29].server[0] droppedJobsSLA 9112
scalar FogSequentialForward.fog[29].server[0] droppedJobsTotal 9851
scalar FogSequentialForward.fog[30].dispatcher localJobs 14777
scalar FogSequentialForward.fog[30].dispatcher internalJobs 16117
scalar FogSequentialForward.fog[30].dispatcher externalJobs 6091098
scalar FogSequentialForward.fog[30].dispatcher remoteJobs 6090931
scalar FogSequentialForward.fog[30].dispatcher probeQueries 0
scalar FogSequentialForward.fog[30].dispatcher probeAnswers 0
scalar FogSequentialForward.fog[30].dispatcher droppedJobsSLA 1507
scalar FogSequentialForward.fog[30].dispatcher jobs_class_1 6107215
scalar FogSequentialForward.fog[30].dispatcher remoteJobs_class_1 6090931
scalar FogSequentialForward.fog[30].dispatcher localJobs_class_1 14777
scalar FogSequentialForward.fog[30].dispatcher droppedJobsSLA_class_1 1507
scalar FogSequentialForward.fog[30].server[0] rho 0.99998605251312
scalar FogSequentialForward.fog[30].server[0] congestionRatio 0
scalar FogSequentialForward.fog[30].server[0] totalJobs 14777
scalar FogSequentialForward.fog[30].server[0] droppedJobsQueue 737
scalar FogSequentialForward.fog[30].server[0] droppedJobsTimout 0
scalar FogSequentialForward.fog[30].server[0] droppedJobsSLA 9103
scalar FogSequentialForward.fog[30].server[0] droppedJobsTotal 9840
scalar FogSequentialForward.fog[31].dispatcher localJobs 14770
scalar FogSequentialForward.fog[31].dispatcher internalJobs 16023
scalar FogSequentialForward.fog[31].dispatcher externalJobs 6093799
scalar FogSequentialForward.fog[31].dispatcher remoteJobs 6093642
scalar FogSequentialForward.fog[31].dispatcher probeQueries 0
scalar FogSequentialForward.fog[31].dispatcher probeAnswers 0
scalar FogSequentialForward.fog[31].dispatcher droppedJobsSLA 1410
scalar FogSequentialForward.fog[31].dispatcher jobs_class_1 6109822
scalar FogSequentialForward.fog[31].dispatcher remoteJobs_class_1 6093642
scalar FogSequentialForward.fog[31].dispatcher localJobs_class_1 14770
scalar FogSequentialForward.fog[31].dispatcher droppedJobsSLA_class_1 1410
scalar FogSequentialForward.fog[31].server[0] rho 0.99998617172241
scalar FogSequentialForward.fog[31].server[0] congestionRatio 0
scalar FogSequentialForward.fog[31].server[0] totalJobs 14770
scalar FogSequentialForward.fog[31].server[0] droppedJobsQueue 737
scalar FogSequentialForward.fog[31].server[0] droppedJobsTimout 0
scalar FogSequentialForward.fog[31].server[0] droppedJobsSLA 9123
scalar FogSequentialForward.fog[31].server[0] droppedJobsTotal 9860
scalar FogSequentialForward.fog[32].dispatcher localJobs 14712
scalar FogSequentialForward.fog[32].dispatcher internalJobs 16039
scalar FogSequentialForward.fog[32].dispatcher externalJobs 6090005
scalar FogSequentialForward.fog[32].dispatcher remoteJobs 6089896
scalar FogSequentialForward.fog[32].dispatcher probeQueries 0
scalar FogSequentialForward.fog[32].dispatcher probeAnswers 0
scalar FogSequentialForward.fog[32].dispatcher droppedJobsSLA 1436
scalar FogSequentialForward.fog[32].dispatcher jobs_class_1 6106044
scalar FogSequentialForward.fog[32].dispatcher remoteJobs_class_1 6089896
scalar FogSequentialForward.fog[32].dispatcher localJobs_class_1 14712
scalar FogSequentialForward.fog[32].dispatcher droppedJobsSLA_class_1 1436
scalar FogSequentialForward.fog[32].server[0] rho 0.99998337030411
scalar FogSequentialForward.fog[32].server[0] congestionRatio 0
scalar FogSequentialForward.fog[32].server[0] totalJobs 14712
scalar FogSequentialForward.fog[32].server[0] droppedJobsQueue 734
scalar FogSequentialForward.fog[32].server[0] droppedJobsTimout 0
scalar FogSequentialForward.fog[32].server[0] droppedJobsSLA 9081
scalar FogSequentialForward.fog[32].server[0] droppedJobsTotal 9815
scalar FogSequentialForward.fog[33].dispatcher localJobs 14797
scalar FogSequentialForward.fog[33].dispatcher internalJobs 16393
scalar FogSequentialForward.fog[33].dispatcher externalJobs 6092842
scalar FogSequentialForward.fog[33].dispatcher remoteJobs 6093034
scalar FogSequentialForward.fog[33].dispatcher probeQueries 0
scalar FogSequentialForward.fog[33].dispatcher probeAnswers 0
scalar FogSequentialForward.fog[33].dispatcher droppedJobsSLA 1404
scalar FogSequentialForward.fog[33].dispatcher jobs_class_1 6109235
scalar FogSequentialForward.fog[33].dispatcher remoteJobs_class_1 6093034
scalar FogSequentialForward.fog[33].dispatcher localJobs_class_1 14797
scalar FogSequentialForward.fog[33].dispatcher droppedJobsSLA_class_1 1404
scalar FogSequentialForward.fog[33].server[0] rho 0.99998831748962
scalar FogSequentialForward.fog[33].server[0] congestionRatio 0
scalar FogSequentialForward.fog[33].server[0] totalJobs 14797
scalar FogSequentialForward.fog[33].server[0] droppedJobsQueue 739
scalar FogSequentialForward.fog[33].server[0] droppedJobsTimout 0
scalar FogSequentialForward.fog[33].server[0] droppedJobsSLA 9106
scalar FogSequentialForward.fog[33].server[0] droppedJobsTotal 9845
scalar FogSequentialForward.fog[34].dispatcher localJobs 14752
scalar FogSequentialForward.fog[34].dispatcher internalJobs 16153
scalar FogSequentialForward.fog[34].dispatcher externalJobs 6091317
scalar FogSequentialForward.fog[34].dispatcher remoteJobs 6091326
scalar FogSequentialForward.fog[34].dispatcher probeQueries 0
scalar FogSequentialForward.fog[34].dispatcher probeAnswers 0
scalar FogSequentialForward.fog[34].dispatcher droppedJobsSLA 1392
scalar FogSequentialForward.fog[34].dispatcher jobs_class_1 6107470
scalar FogSequentialForward.fog[34].dispatcher remoteJobs_class_1 6091326
scalar FogSequentialForward.fog[34].dispatcher localJobs_class_1 14752
scalar FogSequentialForward.fog[34].dispatcher droppedJobsSLA_class_1 1392
scalar FogSequentialForward.fog[34].server[0] rho 0.99998754262924
scalar FogSequentialForward.fog[34].server[0] congestionRatio 0
scalar FogSequentialForward.fog[34].server[0] totalJobs 14752
scalar FogSequentialForward.fog[34].server[0] droppedJobsQueue 736
scalar FogSequentialForward.fog[34].server[0] droppedJobsTimout 0
scalar FogSequentialForward.fog[34].server[0] droppedJobsSLA 9094
scalar FogSequentialForward.fog[34].server[0] droppedJobsTotal 9830
scalar FogSequentialForward.fog[35].dispatcher localJobs 14758
scalar FogSequentialForward.fog[35].dispatcher internalJobs 16364
scalar FogSequentialForward.fog[35].dispatcher externalJobs 6094721
scalar FogSequentialForward.fog[35].dispatcher remoteJobs 6094888
scalar FogSequentialForward.fog[35].dispatcher probeQueries 0
scalar FogSequentialForward.fog[35].dispatcher probeAnswers 0
scalar FogSequentialForward.fog[35].dispatcher droppedJobsSLA 1439
scalar FogSequentialForward.fog[35].dispatcher jobs_class_1 6111085
scalar FogSequentialForward.fog[35].dispatcher remoteJobs_class_1 6094888
scalar FogSequentialForward.fog[35].dispatcher localJobs_class_1 14758
scalar FogSequentialForward.fog[35].dispatcher droppedJobsSLA_class_1 1439
scalar FogSequentialForward.fog[35].server[0] rho 0.99999266862869
scalar FogSequentialForward.fog[35].server[0] congestionRatio 0
scalar FogSequentialForward.fog[35].server[0] totalJobs 14758
scalar FogSequentialForward.fog[35].server[0] droppedJobsQueue 738
scalar FogSequentialForward.fog[35].server[0] droppedJobsTimout 0
scalar FogSequentialForward.fog[35].server[0] droppedJobsSLA 9074
scalar FogSequentialForward.fog[35].server[0] droppedJobsTotal 9812
scalar FogSequentialForward.fog[36].dispatcher localJobs 14773
scalar FogSequentialForward.fog[36].dispatcher internalJobs 16301
scalar FogSequentialForward.fog[36].dispatcher externalJobs 6091872
scalar FogSequentialForward.fog[36].dispatcher remoteJobs 6092009
scalar FogSequentialForward.fog[36].dispatcher probeQueries 0
scalar FogSequentialForward.fog[36].dispatcher probeAnswers 0
scalar FogSequentialForward.fog[36].dispatcher droppedJobsSLA 1391
scalar FogSequentialForward.fog[36].dispatcher jobs_class_1 6108173
scalar FogSequentialForward.fog[36].dispatcher remoteJobs_class_1 6092009
scalar FogSequentialForward.fog[36].dispatcher localJobs_class_1 14773
scalar FogSequentialForward.fog[36].dispatcher droppedJobsSLA_class_1 1391
scalar FogSequentialForward.fog[36].server[0] rho 0.99998635053635
scalar FogSequentialForward.fog[36].server[0] congestionRatio 0
scalar FogSequentialForward.fog[36].server[0] totalJobs 14773
scalar FogSequentialForward.fog[36].server[0] droppedJobsQueue 734
scalar FogSequentialForward.fog[36].server[0] droppedJobsTimout 0
scalar FogSequentialForward.fog[36].server[0] droppedJobsSLA 9090
scalar FogSequentialForward.fog[36].server[0] droppedJobsTotal 9824
scalar FogSequentialForward.fog[37].dispatcher localJobs 14770
scalar FogSequentialForward.fog[37].dispatcher internalJobs 16140
scalar FogSequentialForward.fog[37].dispatcher externalJobs 6088411
scalar FogSequentialForward.fog[37].dispatcher remoteJobs 6088308
scalar FogSequentialForward.fog[37].dispatcher probeQueries 0
scalar FogSequentialForward.fog[37].dispatcher probeAnswers 0
scalar FogSequentialForward.fog[37].dispatcher droppedJobsSLA 1473
scalar FogSequentialForward.fog[37].dispatcher jobs_class_1 6104551
scalar FogSequentialForward.fog[37].dispatcher remoteJobs_class_1 6088308
scalar FogSequentialForward.fog[37].dispatcher localJobs_class_1 14770
scalar FogSequentialForward.fog[37].dispatcher droppedJobsSLA_class_1 1473
scalar FogSequentialForward.fog[37].server[0] rho 0.99998617172241
scalar FogSequentialForward.fog[37].server[0] congestionRatio 0
scalar FogSequentialForward.fog[37].server[0] totalJobs 14770
scalar FogSequentialForward.fog[37].server[0] droppedJobsQueue 737
scalar FogSequentialForward.fog[37].server[0] droppedJobsTimout 0
scalar FogSequentialForward.fog[37].server[0] droppedJobsSLA 9078
scalar FogSequentialForward.fog[37].server[0] droppedJobsTotal 9815
scalar FogSequentialForward.fog[38].dispatcher localJobs 14776
scalar FogSequentialForward.fog[38].dispatcher internalJobs 16358
scalar FogSequentialForward.fog[38].dispatcher externalJobs 6088022
scalar FogSequentialForward.fog[38].dispatcher remoteJobs 6088201
scalar FogSequentialForward.fog[38].dispatcher probeQueries 0
scalar FogSequentialForward.fog[38].dispatcher probeAnswers 0
scalar FogSequentialForward.fog[38].dispatcher droppedJobsSLA 1403
scalar FogSequentialForward.fog[38].dispatcher jobs_class_1 6104380
scalar FogSequentialForward.fog[38].dispatcher remoteJobs_class_1 6088201
scalar FogSequentialForward.fog[38].dispatcher localJobs_class_1 14776
scalar FogSequentialForward.fog[38].dispatcher droppedJobsSLA_class_1 1403
scalar FogSequentialForward.fog[38].server[0] rho 0.99998480081558
scalar FogSequentialForward.fog[38].server[0] congestionRatio 0
scalar FogSequentialForward.fog[38].server[0] totalJobs 14776
scalar FogSequentialForward.fog[38].server[0] droppedJobsQueue 737
scalar FogSequentialForward.fog[38].server[0] droppedJobsTimout 0
scalar FogSequentialForward.fog[38].server[0] droppedJobsSLA 9033
scalar FogSequentialForward.fog[38].server[0] droppedJobsTotal 9770
scalar FogSequentialForward.fog[39].dispatcher localJobs 14867
scalar FogSequentialForward.fog[39].dispatcher internalJobs 16324
scalar FogSequentialForward.fog[39].dispatcher externalJobs 6093264
scalar FogSequentialForward.fog[39].dispatcher remoteJobs 6093289
scalar FogSequentialForward.fog[39].dispatcher probeQueries 0
scalar FogSequentialForward.fog[39].dispatcher probeAnswers 0
scalar FogSequentialForward.fog[39].dispatcher droppedJobsSLA 1432
scalar FogSequentialForward.fog[39].dispatcher jobs_class_1 6109588
scalar FogSequentialForward.fog[39].dispatcher remoteJobs_class_1 6093289
scalar FogSequentialForward.fog[39].dispatcher localJobs_class_1 14867
scalar FogSequentialForward.fog[39].dispatcher droppedJobsSLA_class_1 1432
scalar FogSequentialForward.fog[39].server[0] rho 0.99998903274536
scalar FogSequentialForward.fog[39].server[0] congestionRatio 0
scalar FogSequentialForward.fog[39].server[0] totalJobs 14867
scalar FogSequentialForward.fog[39].server[0] droppedJobsQueue 744
scalar FogSequentialForward.fog[39].server[0] droppedJobsTimout 0
scalar FogSequentialForward.fog[39].server[0] droppedJobsSLA 9144
scalar FogSequentialForward.fog[39].server[0] droppedJobsTotal 9888
scalar FogSequentialForward.fog[40].dispatcher localJobs 14805
scalar FogSequentialForward.fog[40].dispatcher internalJobs 16425
scalar FogSequentialForward.fog[40].dispatcher externalJobs 6093451
scalar FogSequentialForward.fog[40].dispatcher remoteJobs 6093627
scalar FogSequentialForward.fog[40].dispatcher probeQueries 0
scalar FogSequentialForward.fog[40].dispatcher probeAnswers 0
scalar FogSequentialForward.fog[40].dispatcher droppedJobsSLA 1444
scalar FogSequentialForward.fog[40].dispatcher jobs_class_1 6109876
scalar FogSequentialForward.fog[40].dispatcher remoteJobs_class_1 6093627
scalar FogSequentialForward.fog[40].dispatcher localJobs_class_1 14805
scalar FogSequentialForward.fog[40].dispatcher droppedJobsSLA_class_1 1444
scalar FogSequentialForward.fog[40].server[0] rho 0.99998563528061
scalar FogSequentialForward.fog[40].server[0] congestionRatio 0
scalar FogSequentialForward.fog[40].server[0] totalJobs 14805
scalar FogSequentialForward.fog[40].server[0] droppedJobsQueue 741
scalar FogSequentialForward.fog[40].server[0] droppedJobsTimout 0
scalar FogSequentialForward.fog[40].server[0] droppedJobsSLA 9095
scalar FogSequentialForward.fog[40].server[0] droppedJobsTotal 9836
scalar FogSequentialForward.fog[41].dispatcher localJobs 14780
scalar FogSequentialForward.fog[41].dispatcher internalJobs 16244
scalar FogSequentialForward.fog[41].dispatcher externalJobs 6088949
scalar FogSequentialForward.fog[41].dispatcher remoteJobs 6088958
scalar FogSequentialForward.fog[41].dispatcher probeQueries 0
scalar FogSequentialForward.fog[41].dispatcher probeAnswers 0
scalar FogSequentialForward.fog[41].dispatcher droppedJobsSLA 1455
scalar FogSequentialForward.fog[41].dispatcher jobs_class_1 6105193
scalar FogSequentialForward.fog[41].dispatcher remoteJobs_class_1 6088958
scalar FogSequentialForward.fog[41].dispatcher localJobs_class_1 14780
scalar FogSequentialForward.fog[41].dispatcher droppedJobsSLA_class_1 1455
scalar FogSequentialForward.fog[41].server[0] rho 0.99998670816422
scalar FogSequentialForward.fog[41].server[0] congestionRatio 0
scalar FogSequentialForward.fog[41].server[0] totalJobs 14780
scalar FogSequentialForward.fog[41].server[0] droppedJobsQueue 737
scalar FogSequentialForward.fog[41].server[0] droppedJobsTimout 0
scalar FogSequentialForward.fog[41].server[0] droppedJobsSLA 9094
scalar FogSequentialForward.fog[41].server[0] droppedJobsTotal 9831
scalar FogSequentialForward.fog[42].dispatcher localJobs 14717
scalar FogSequentialForward.fog[42].dispatcher internalJobs 16054
scalar FogSequentialForward.fog[42].dispatcher externalJobs 6091964
scalar FogSequentialForward.fog[42].dispatcher remoteJobs 6091957
scalar FogSequentialForward.fog[42].dispatcher probeQueries 0
scalar FogSequentialForward.fog[42].dispatcher probeAnswers 0
scalar FogSequentialForward.fog[42].dispatcher droppedJobsSLA 1344
scalar FogSequentialForward.fog[42].dispatcher jobs_class_1 6108018
scalar FogSequentialForward.fog[42].dispatcher remoteJobs_class_1 6091957
scalar FogSequentialForward.fog[42].dispatcher localJobs_class_1 14717
scalar FogSequentialForward.fog[42].dispatcher droppedJobsSLA_class_1 1344
scalar FogSequentialForward.fog[42].server[0] rho 0.99998718500137
scalar FogSequentialForward.fog[42].server[0] congestionRatio 0
scalar FogSequentialForward.fog[42].server[0] totalJobs 14717
scalar FogSequentialForward.fog[42].server[0] droppedJobsQueue 739
scalar FogSequentialForward.fog[42].server[0] droppedJobsTimout 0
scalar FogSequentialForward.fog[42].server[0] droppedJobsSLA 9084
scalar FogSequentialForward.fog[42].server[0] droppedJobsTotal 9823
scalar FogSequentialForward.fog[43].dispatcher localJobs 14765
scalar FogSequentialForward.fog[43].dispatcher internalJobs 16229
scalar FogSequentialForward.fog[43].dispatcher externalJobs 6088686
scalar FogSequentialForward.fog[43].dispatcher remoteJobs 6088748
scalar FogSequentialForward.fog[43].dispatcher probeQueries 0
scalar FogSequentialForward.fog[43].dispatcher probeAnswers 0
scalar FogSequentialForward.fog[43].dispatcher droppedJobsSLA 1402
scalar FogSequentialForward.fog[43].dispatcher jobs_class_1 6104915
scalar FogSequentialForward.fog[43].dispatcher remoteJobs_class_1 6088748
scalar FogSequentialForward.fog[43].dispatcher localJobs_class_1 14765
scalar FogSequentialForward.fog[43].dispatcher droppedJobsSLA_class_1 1402
scalar FogSequentialForward.fog[43].server[0] rho 0.9999892115593
scalar FogSequentialForward.fog[43].server[0] congestionRatio 0
scalar FogSequentialForward.fog[43].server[0] totalJobs 14765
scalar FogSequentialForward.fog[43].server[0] droppedJobsQueue 739
scalar FogSequentialForward.fog[43].server[0] droppedJobsTimout 0
scalar FogSequentialForward.fog[43].server[0] droppedJobsSLA 9098
scalar FogSequentialForward.fog[43].server[0] droppedJobsTotal 9837
scalar FogSequentialForward.fog[44].dispatcher localJobs 14796
scalar FogSequentialForward.fog[44].dispatcher internalJobs 16212
scalar FogSequentialForward.fog[44].dispatcher externalJobs 6091729
scalar FogSequentialForward.fog[44].dispatcher remoteJobs 6091709
scalar FogSequentialForward.fog[44].dispatcher probeQueries 0
scalar FogSequentialForward.fog[44].dispatcher probeAnswers 0
scalar FogSequentialForward.fog[44].dispatcher droppedJobsSLA 1436
scalar FogSequentialForward.fog[44].dispatcher jobs_class_1 6107941
scalar FogSequentialForward.fog[44].dispatcher remoteJobs_class_1 6091709
scalar FogSequentialForward.fog[44].dispatcher localJobs_class_1 14796
scalar FogSequentialForward.fog[44].dispatcher droppedJobsSLA_class_1 1436
scalar FogSequentialForward.fog[44].server[0] rho 0.9999897480011
scalar FogSequentialForward.fog[44].server[0] congestionRatio 0
scalar FogSequentialForward.fog[44].server[0] totalJobs 14796
scalar FogSequentialForward.fog[44].server[0] droppedJobsQueue 739
scalar FogSequentialForward.fog[44].server[0] droppedJobsTimout 0
scalar FogSequentialForward.fog[44].server[0] droppedJobsSLA 9117
scalar FogSequentialForward.fog[44].server[0] droppedJobsTotal 9856
scalar FogSequentialForward.fog[45].dispatcher localJobs 14832
scalar FogSequentialForward.fog[45].dispatcher internalJobs 15920
scalar FogSequentialForward.fog[45].dispatcher externalJobs 6090747
scalar FogSequentialForward.fog[45].dispatcher remoteJobs 6090338
scalar FogSequentialForward.fog[45].dispatcher probeQueries 0
scalar FogSequentialForward.fog[45].dispatcher probeAnswers 0
scalar FogSequentialForward.fog[45].dispatcher droppedJobsSLA 1497
scalar FogSequentialForward.fog[45].dispatcher jobs_class_1 6106667
scalar FogSequentialForward.fog[45].dispatcher remoteJobs_class_1 6090338
scalar FogSequentialForward.fog[45].dispatcher localJobs_class_1 14832
scalar FogSequentialForward.fog[45].dispatcher droppedJobsSLA_class_1 1497
scalar FogSequentialForward.fog[45].server[0] rho 0.99998742341995
scalar FogSequentialForward.fog[45].server[0] congestionRatio 0
scalar FogSequentialForward.fog[45].server[0] totalJobs 14832
scalar FogSequentialForward.fog[45].server[0] droppedJobsQueue 742
scalar FogSequentialForward.fog[45].server[0] droppedJobsTimout 0
scalar FogSequentialForward.fog[45].server[0] droppedJobsSLA 9124
scalar FogSequentialForward.fog[45].server[0] droppedJobsTotal 9866
scalar FogSequentialForward.fog[46].dispatcher localJobs 14838
scalar FogSequentialForward.fog[46].dispatcher internalJobs 16130
scalar FogSequentialForward.fog[46].dispatcher externalJobs 6089961
scalar FogSequentialForward.fog[46].dispatcher remoteJobs 6089785
scalar FogSequentialForward.fog[46].dispatcher probeQueries 0
scalar FogSequentialForward.fog[46].dispatcher probeAnswers 0
scalar FogSequentialForward.fog[46].dispatcher droppedJobsSLA 1468
scalar FogSequentialForward.fog[46].dispatcher jobs_class_1 6106091
scalar FogSequentialForward.fog[46].dispatcher remoteJobs_class_1 6089785
scalar FogSequentialForward.fog[46].dispatcher localJobs_class_1 14838
scalar FogSequentialForward.fog[46].dispatcher droppedJobsSLA_class_1 1468
scalar FogSequentialForward.fog[46].server[0] rho 0.99998581409454
scalar FogSequentialForward.fog[46].server[0] congestionRatio 0
scalar FogSequentialForward.fog[46].server[0] totalJobs 14838
scalar FogSequentialForward.fog[46].server[0] droppedJobsQueue 741
scalar FogSequentialForward.fog[46].server[0] droppedJobsTimout 0
scalar FogSequentialForward.fog[46].server[0] droppedJobsSLA 9094
scalar FogSequentialForward.fog[46].server[0] droppedJobsTotal 9835
scalar FogSequentialForward.fog[47].dispatcher localJobs 14838
scalar FogSequentialForward.fog[47].dispatcher internalJobs 16048
scalar FogSequentialForward.fog[47].dispatcher externalJobs 6092628
scalar FogSequentialForward.fog[47].dispatcher remoteJobs 6092443
scalar FogSequentialForward.fog[47].dispatcher probeQueries 0
scalar FogSequentialForward.fog[47].dispatcher probeAnswers 0
scalar FogSequentialForward.fog[47].dispatcher droppedJobsSLA 1395
scalar FogSequentialForward.fog[47].dispatcher jobs_class_1 6108676
scalar FogSequentialForward.fog[47].dispatcher remoteJobs_class_1 6092443
scalar FogSequentialForward.fog[47].dispatcher localJobs_class_1 14838
scalar FogSequentialForward.fog[47].dispatcher droppedJobsSLA_class_1 1395
scalar FogSequentialForward.fog[47].server[0] rho 0.99998837709427
scalar FogSequentialForward.fog[47].server[0] congestionRatio 0
scalar FogSequentialForward.fog[47].server[0] totalJobs 14838
scalar FogSequentialForward.fog[47].server[0] droppedJobsQueue 739
scalar FogSequentialForward.fog[47].server[0] droppedJobsTimout 0
scalar FogSequentialForward.fog[47].server[0] droppedJobsSLA 9128
scalar FogSequentialForward.fog[47].server[0] droppedJobsTotal 9867
scalar FogSequentialForward.fog[48].dispatcher localJobs 14758
scalar FogSequentialForward.fog[48].dispatcher internalJobs 16137
scalar FogSequentialForward.fog[48].dispatcher externalJobs 6089052
scalar FogSequentialForward.fog[48].dispatcher remoteJobs 6089007
scalar FogSequentialForward.fog[48].dispatcher probeQueries 0
scalar FogSequentialForward.fog[48].dispatcher probeAnswers 0
scalar FogSequentialForward.fog[48].dispatcher droppedJobsSLA 1424
scalar FogSequentialForward.fog[48].dispatcher jobs_class_1 6105189
scalar FogSequentialForward.fog[48].dispatcher remoteJobs_class_1 6089007
scalar FogSequentialForward.fog[48].dispatcher localJobs_class_1 14758
scalar FogSequentialForward.fog[48].dispatcher droppedJobsSLA_class_1 1424
scalar FogSequentialForward.fog[48].server[0] rho 0.99998986721039
scalar FogSequentialForward.fog[48].server[0] congestionRatio 0
scalar FogSequentialForward.fog[48].server[0] totalJobs 14758
scalar FogSequentialForward.fog[48].server[0] droppedJobsQueue 736
scalar FogSequentialForward.fog[48].server[0] droppedJobsTimout 0
scalar FogSequentialForward.fog[48].server[0] droppedJobsSLA 9122
scalar FogSequentialForward.fog[48].server[0] droppedJobsTotal 9858
scalar FogSequentialForward.fog[49].dispatcher localJobs 14748
scalar FogSequentialForward.fog[49].dispatcher internalJobs 16162
scalar FogSequentialForward.fog[49].dispatcher externalJobs 6092367
scalar FogSequentialForward.fog[49].dispatcher remoteJobs 6092351
scalar FogSequentialForward.fog[49].dispatcher probeQueries 0
scalar FogSequentialForward.fog[49].dispatcher probeAnswers 0
scalar FogSequentialForward.fog[49].dispatcher droppedJobsSLA 1430
scalar FogSequentialForward.fog[49].dispatcher jobs_class_1 6108529
scalar FogSequentialForward.fog[49].dispatcher remoteJobs_class_1 6092351
scalar FogSequentialForward.fog[49].dispatcher localJobs_class_1 14748
scalar FogSequentialForward.fog[49].dispatcher droppedJobsSLA_class_1 1430
scalar FogSequentialForward.fog[49].server[0] rho 0.9999874830246
scalar FogSequentialForward.fog[49].server[0] congestionRatio 0
scalar FogSequentialForward.fog[49].server[0] totalJobs 14748
scalar FogSequentialForward.fog[49].server[0] droppedJobsQueue 734
scalar FogSequentialForward.fog[49].server[0] droppedJobsTimout 0
scalar FogSequentialForward.fog[49].server[0] droppedJobsSLA 9050
scalar FogSequentialForward.fog[49].server[0] droppedJobsTotal 9784
scalar FogSequentialForward.fog[50].dispatcher localJobs 14812
scalar FogSequentialForward.fog[50].dispatcher internalJobs 16235
scalar FogSequentialForward.fog[50].dispatcher externalJobs 6090814
scalar FogSequentialForward.fog[50].dispatcher remoteJobs 6090795
scalar FogSequentialForward.fog[50].dispatcher probeQueries 0
scalar FogSequentialForward.fog[50].dispatcher probeAnswers 0
scalar FogSequentialForward.fog[50].dispatcher droppedJobsSLA 1442
scalar FogSequentialForward.fog[50].dispatcher jobs_class_1 6107049
scalar FogSequentialForward.fog[50].dispatcher remoteJobs_class_1 6090795
scalar FogSequentialForward.fog[50].dispatcher localJobs_class_1 14812
scalar FogSequentialForward.fog[50].dispatcher droppedJobsSLA_class_1 1442
scalar FogSequentialForward.fog[50].server[0] rho 0.99997973442078
scalar FogSequentialForward.fog[50].server[0] congestionRatio 0
scalar FogSequentialForward.fog[50].server[0] totalJobs 14812
scalar FogSequentialForward.fog[50].server[0] droppedJobsQueue 738
scalar FogSequentialForward.fog[50].server[0] droppedJobsTimout 0
scalar FogSequentialForward.fog[50].server[0] droppedJobsSLA 9058
scalar FogSequentialForward.fog[50].server[0] droppedJobsTotal 9796
scalar FogSequentialForward.fog[51].dispatcher localJobs 14811
scalar FogSequentialForward.fog[51].dispatcher internalJobs 16074
scalar FogSequentialForward.fog[51].dispatcher externalJobs 6092132
scalar FogSequentialForward.fog[51].dispatcher remoteJobs 6091916
scalar FogSequentialForward.fog[51].dispatcher probeQueries 0
scalar FogSequentialForward.fog[51].dispatcher probeAnswers 0
scalar FogSequentialForward.fog[51].dispatcher droppedJobsSLA 1479
scalar FogSequentialForward.fog[51].dispatcher jobs_class_1 6108206
scalar FogSequentialForward.fog[51].dispatcher remoteJobs_class_1 6091916
scalar FogSequentialForward.fog[51].dispatcher localJobs_class_1 14811
scalar FogSequentialForward.fog[51].dispatcher droppedJobsSLA_class_1 1479
scalar FogSequentialForward.fog[51].server[0] rho 0.99998956918716
scalar FogSequentialForward.fog[51].server[0] congestionRatio 0
scalar FogSequentialForward.fog[51].server[0] totalJobs 14811
scalar FogSequentialForward.fog[51].server[0] droppedJobsQueue 739
scalar FogSequentialForward.fog[51].server[0] droppedJobsTimout 0
scalar FogSequentialForward.fog[51].server[0] droppedJobsSLA 9145
scalar FogSequentialForward.fog[51].server[0] droppedJobsTotal 9884
scalar FogSequentialForward.fog[52].dispatcher localJobs 14759
scalar FogSequentialForward.fog[52].dispatcher internalJobs 16143
scalar FogSequentialForward.fog[52].dispatcher externalJobs 6093127
scalar FogSequentialForward.fog[52].dispatcher remoteJobs 6092976
scalar FogSequentialForward.fog[52].dispatcher probeQueries 0
scalar FogSequentialForward.fog[52].dispatcher probeAnswers 0
scalar FogSequentialForward.fog[52].dispatcher droppedJobsSLA 1535
scalar FogSequentialForward.fog[52].dispatcher jobs_class_1 6109270
scalar FogSequentialForward.fog[52].dispatcher remoteJobs_class_1 6092976
scalar FogSequentialForward.fog[52].dispatcher localJobs_class_1 14759
scalar FogSequentialForward.fog[52].dispatcher droppedJobsSLA_class_1 1535
scalar FogSequentialForward.fog[52].server[0] rho 0.99998831748962
scalar FogSequentialForward.fog[52].server[0] congestionRatio 0
scalar FogSequentialForward.fog[52].server[0] totalJobs 14759
scalar FogSequentialForward.fog[52].server[0] droppedJobsQueue 737
scalar FogSequentialForward.fog[52].server[0] droppedJobsTimout 0
scalar FogSequentialForward.fog[52].server[0] droppedJobsSLA 9141
scalar FogSequentialForward.fog[52].server[0] droppedJobsTotal 9878
scalar FogSequentialForward.fog[53].dispatcher localJobs 14770
scalar FogSequentialForward.fog[53].dispatcher internalJobs 16422
scalar FogSequentialForward.fog[53].dispatcher externalJobs 6088501
scalar FogSequentialForward.fog[53].dispatcher remoteJobs 6088710
scalar FogSequentialForward.fog[53].dispatcher probeQueries 0
scalar FogSequentialForward.fog[53].dispatcher probeAnswers 0
scalar FogSequentialForward.fog[53].dispatcher droppedJobsSLA 1443
scalar FogSequentialForward.fog[53].dispatcher jobs_class_1 6104923
scalar FogSequentialForward.fog[53].dispatcher remoteJobs_class_1 6088710
scalar FogSequentialForward.fog[53].dispatcher localJobs_class_1 14770
scalar FogSequentialForward.fog[53].dispatcher droppedJobsSLA_class_1 1443
scalar FogSequentialForward.fog[53].server[0] rho 0.99998635053635
scalar FogSequentialForward.fog[53].server[0] congestionRatio 0
scalar FogSequentialForward.fog[53].server[0] totalJobs 14770
scalar FogSequentialForward.fog[53].server[0] droppedJobsQueue 737
scalar FogSequentialForward.fog[53].server[0] droppedJobsTimout 0
scalar FogSequentialForward.fog[53].server[0] droppedJobsSLA 9092
scalar FogSequentialForward.fog[53].server[0] droppedJobsTotal 9829
scalar FogSequentialForward.fog[54].dispatcher localJobs 14786
scalar FogSequentialForward.fog[54].dispatcher internalJobs 16265
scalar FogSequentialForward.fog[54].dispatcher externalJobs 6088176
scalar FogSequentialForward.fog[54].dispatcher remoteJobs 6088284
scalar FogSequentialForward.fog[54].dispatcher probeQueries 0
scalar FogSequentialForward.fog[54].dispatcher probeAnswers 0
scalar FogSequentialForward.fog[54].dispatcher droppedJobsSLA 1371
scalar FogSequentialForward.fog[54].dispatcher jobs_class_1 6104441
scalar FogSequentialForward.fog[54].dispatcher remoteJobs_class_1 6088284
scalar FogSequentialForward.fog[54].dispatcher localJobs_class_1 14786
scalar FogSequentialForward.fog[54].dispatcher droppedJobsSLA_class_1 1371
scalar FogSequentialForward.fog[54].server[0] rho 0.9999885559082
scalar FogSequentialForward.fog[54].server[0] congestionRatio 0
scalar FogSequentialForward.fog[54].server[0] totalJobs 14786
scalar FogSequentialForward.fog[54].server[0] droppedJobsQueue 737
scalar FogSequentialForward.fog[54].server[0] droppedJobsTimout 0
scalar FogSequentialForward.fog[54].server[0] droppedJobsSLA 9111
scalar FogSequentialForward.fog[54].server[0] droppedJobsTotal 9848
scalar FogSequentialForward.fog[55].dispatcher localJobs 14805
scalar FogSequentialForward.fog[55].dispatcher internalJobs 16399
scalar FogSequentialForward.fog[55].dispatcher externalJobs 6093857
scalar FogSequentialForward.fog[55].dispatcher remoteJobs 6094041
scalar FogSequentialForward.fog[55].dispatcher probeQueries 0
scalar FogSequentialForward.fog[55].dispatcher probeAnswers 0
scalar FogSequentialForward.fog[55].dispatcher droppedJobsSLA 1410
scalar FogSequentialForward.fog[55].dispatcher jobs_class_1 6110256
scalar FogSequentialForward.fog[55].dispatcher remoteJobs_class_1 6094041
scalar FogSequentialForward.fog[55].dispatcher localJobs_class_1 14805
scalar FogSequentialForward.fog[55].dispatcher droppedJobsSLA_class_1 1410
scalar FogSequentialForward.fog[55].server[0] rho 0.99997556209564
scalar FogSequentialForward.fog[55].server[0] congestionRatio 0
scalar FogSequentialForward.fog[55].server[0] totalJobs 14805
scalar FogSequentialForward.fog[55].server[0] droppedJobsQueue 738
scalar FogSequentialForward.fog[55].server[0] droppedJobsTimout 0
scalar FogSequentialForward.fog[55].server[0] droppedJobsSLA 9131
scalar FogSequentialForward.fog[55].server[0] droppedJobsTotal 9869
scalar FogSequentialForward.fog[56].dispatcher localJobs 14792
scalar FogSequentialForward.fog[56].dispatcher internalJobs 16060
scalar FogSequentialForward.fog[56].dispatcher externalJobs 6086949
scalar FogSequentialForward.fog[56].dispatcher remoteJobs 6086781
scalar FogSequentialForward.fog[56].dispatcher probeQueries 0
scalar FogSequentialForward.fog[56].dispatcher probeAnswers 0
scalar FogSequentialForward.fog[56].dispatcher droppedJobsSLA 1436
scalar FogSequentialForward.fog[56].dispatcher jobs_class_1 6103009
scalar FogSequentialForward.fog[56].dispatcher remoteJobs_class_1 6086781
scalar FogSequentialForward.fog[56].dispatcher localJobs_class_1 14792
scalar FogSequentialForward.fog[56].dispatcher droppedJobsSLA_class_1 1436
scalar FogSequentialForward.fog[56].server[0] rho 0.99998378753662
scalar FogSequentialForward.fog[56].server[0] congestionRatio 0
scalar FogSequentialForward.fog[56].server[0] totalJobs 14792
scalar FogSequentialForward.fog[56].server[0] droppedJobsQueue 736
scalar FogSequentialForward.fog[56].server[0] droppedJobsTimout 0
scalar FogSequentialForward.fog[56].server[0] droppedJobsSLA 9070
scalar FogSequentialForward.fog[56].server[0] droppedJobsTotal 9806
scalar FogSequentialForward.fog[57].dispatcher localJobs 14847
scalar FogSequentialForward.fog[57].dispatcher internalJobs 16101
scalar FogSequentialForward.fog[57].dispatcher externalJobs 6090854
scalar FogSequentialForward.fog[57].dispatcher remoteJobs 6090729
scalar FogSequentialForward.fog[57].dispatcher probeQueries 0
scalar FogSequentialForward.fog[57].dispatcher probeAnswers 0
scalar FogSequentialForward.fog[57].dispatcher droppedJobsSLA 1379
scalar FogSequentialForward.fog[57].dispatcher jobs_class_1 6106955
scalar FogSequentialForward.fog[57].dispatcher remoteJobs_class_1 6090729
scalar FogSequentialForward.fog[57].dispatcher localJobs_class_1 14847
scalar FogSequentialForward.fog[57].dispatcher droppedJobsSLA_class_1 1379
scalar FogSequentialForward.fog[57].server[0] rho 0.99998503923416
scalar FogSequentialForward.fog[57].server[0] congestionRatio 0
scalar FogSequentialForward.fog[57].server[0] totalJobs 14847
scalar FogSequentialForward.fog[57].server[0] droppedJobsQueue 739
scalar FogSequentialForward.fog[57].server[0] droppedJobsTimout 0
scalar FogSequentialForward.fog[57].server[0] droppedJobsSLA 9153
scalar FogSequentialForward.fog[57].server[0] droppedJobsTotal 9892
scalar FogSequentialForward.fog[58].dispatcher localJobs 14736
scalar FogSequentialForward.fog[58].dispatcher internalJobs 16114
scalar FogSequentialForward.fog[58].dispatcher externalJobs 6094708
scalar FogSequentialForward.fog[58].dispatcher remoteJobs 6094666
scalar FogSequentialForward.fog[58].dispatcher probeQueries 0
scalar FogSequentialForward.fog[58].dispatcher probeAnswers 0
scalar FogSequentialForward.fog[58].dispatcher droppedJobsSLA 1420
scalar FogSequentialForward.fog[58].dispatcher jobs_class_1 6110822
scalar FogSequentialForward.fog[58].dispatcher remoteJobs_class_1 6094666
scalar FogSequentialForward.fog[58].dispatcher localJobs_class_1 14736
scalar FogSequentialForward.fog[58].dispatcher droppedJobsSLA_class_1 1420
scalar FogSequentialForward.fog[58].server[0] rho 0.99998837709427
scalar FogSequentialForward.fog[58].server[0] congestionRatio 0
scalar FogSequentialForward.fog[58].server[0] totalJobs 14736
scalar FogSequentialForward.fog[58].server[0] droppedJobsQueue 733
scalar FogSequentialForward.fog[58].server[0] droppedJobsTimout 0
scalar FogSequentialForward.fog[58].server[0] droppedJobsSLA 9098
scalar FogSequentialForward.fog[58].server[0] droppedJobsTotal 9831
scalar FogSequentialForward.fog[59].dispatcher localJobs 14765
scalar FogSequentialForward.fog[59].dispatcher internalJobs 16231
scalar FogSequentialForward.fog[59].dispatcher externalJobs 6085718
scalar FogSequentialForward.fog[59].dispatcher remoteJobs 6085790
scalar FogSequentialForward.fog[59].dispatcher probeQueries 0
scalar FogSequentialForward.fog[59].dispatcher probeAnswers 0
scalar FogSequentialForward.fog[59].dispatcher droppedJobsSLA 1394
scalar FogSequentialForward.fog[59].dispatcher jobs_class_1 6101949
scalar FogSequentialForward.fog[59].dispatcher remoteJobs_class_1 6085790
scalar FogSequentialForward.fog[59].dispatcher localJobs_class_1 14765
scalar FogSequentialForward.fog[59].dispatcher droppedJobsSLA_class_1 1394
scalar FogSequentialForward.fog[59].server[0] rho 0.99998611211777
scalar FogSequentialForward.fog[59].server[0] congestionRatio 0
scalar FogSequentialForward.fog[59].server[0] totalJobs 14765
scalar FogSequentialForward.fog[59].server[0] droppedJobsQueue 737
scalar FogSequentialForward.fog[59].server[0] droppedJobsTimout 0
scalar FogSequentialForward.fog[59].server[0] droppedJobsSLA 9083
scalar FogSequentialForward.fog[59].server[0] droppedJobsTotal 9820
scalar FogSequentialForward.fog[60].dispatcher localJobs 14737
scalar FogSequentialForward.fog[60].dispatcher internalJobs 16163
scalar FogSequentialForward.fog[60].dispatcher externalJobs 6085446
scalar FogSequentialForward.fog[60].dispatcher remoteJobs 6085450
scalar FogSequentialForward.fog[60].dispatcher probeQueries 0
scalar FogSequentialForward.fog[60].dispatcher probeAnswers 0
scalar FogSequentialForward.fog[60].dispatcher droppedJobsSLA 1422
scalar FogSequentialForward.fog[60].dispatcher jobs_class_1 6101609
scalar FogSequentialForward.fog[60].dispatcher remoteJobs_class_1 6085450
scalar FogSequentialForward.fog[60].dispatcher localJobs_class_1 14737
scalar FogSequentialForward.fog[60].dispatcher droppedJobsSLA_class_1 1422
scalar FogSequentialForward.fog[60].server[0] rho 0.99996298551559
scalar FogSequentialForward.fog[60].server[0] congestionRatio 0
scalar FogSequentialForward.fog[60].server[0] totalJobs 14737
scalar FogSequentialForward.fog[60].server[0] droppedJobsQueue 739
scalar FogSequentialForward.fog[60].server[0] droppedJobsTimout 0
scalar FogSequentialForward.fog[60].server[0] droppedJobsSLA 9045
scalar FogSequentialForward.fog[60].server[0] droppedJobsTotal 9784
scalar FogSequentialForward.fog[61].dispatcher localJobs 14755
scalar FogSequentialForward.fog[61].dispatcher internalJobs 16272
scalar FogSequentialForward.fog[61].dispatcher externalJobs 6089362
scalar FogSequentialForward.fog[61].dispatcher remoteJobs 6089450
scalar FogSequentialForward.fog[61].dispatcher probeQueries 0
scalar FogSequentialForward.fog[61].dispatcher probeAnswers 0
scalar FogSequentialForward.fog[61].dispatcher droppedJobsSLA 1429
scalar FogSequentialForward.fog[61].dispatcher jobs_class_1 6105634
scalar FogSequentialForward.fog[61].dispatcher remoteJobs_class_1 6089450
scalar FogSequentialForward.fog[61].dispatcher localJobs_class_1 14755
scalar FogSequentialForward.fog[61].dispatcher droppedJobsSLA_class_1 1429
scalar FogSequentialForward.fog[61].server[0] rho 0.99998831748962
scalar FogSequentialForward.fog[61].server[0] congestionRatio 0
scalar FogSequentialForward.fog[61].server[0] totalJobs 14755
scalar FogSequentialForward.fog[61].server[0] droppedJobsQueue 738
scalar FogSequentialForward.fog[61].server[0] droppedJobsTimout 0
scalar FogSequentialForward.fog[61].server[0] droppedJobsSLA 9125
scalar FogSequentialForward.fog[61].server[0] droppedJobsTotal 9863
scalar FogSequentialForward.fog[62].dispatcher localJobs 14760
scalar FogSequentialForward.fog[62].dispatcher internalJobs 16367
scalar FogSequentialForward.fog[62].dispatcher externalJobs 6092785
scalar FogSequentialForward.fog[62].dispatcher remoteJobs 6093006
scalar FogSequentialForward.fog[62].dispatcher probeQueries 0
scalar FogSequentialForward.fog[62].dispatcher probeAnswers 0
scalar FogSequentialForward.fog[62].dispatcher droppedJobsSLA 1386
scalar FogSequentialForward.fog[62].dispatcher jobs_class_1 6109152
scalar FogSequentialForward.fog[62].dispatcher remoteJobs_class_1 6093006
scalar FogSequentialForward.fog[62].dispatcher localJobs_class_1 14760
scalar FogSequentialForward.fog[62].dispatcher droppedJobsSLA_class_1 1386
scalar FogSequentialForward.fog[62].server[0] rho 0.99998730421066
scalar FogSequentialForward.fog[62].server[0] congestionRatio 0
scalar FogSequentialForward.fog[62].server[0] totalJobs 14760
scalar FogSequentialForward.fog[62].server[0] droppedJobsQueue 737
scalar FogSequentialForward.fog[62].server[0] droppedJobsTimout 0
scalar FogSequentialForward.fog[62].server[0] droppedJobsSLA 9042
scalar FogSequentialForward.fog[62].server[0] droppedJobsTotal 9779
scalar FogSequentialForward.fog[63].dispatcher localJobs 14834
scalar FogSequentialForward.fog[63].dispatcher internalJobs 16426
scalar FogSequentialForward.fog[63].dispatcher externalJobs 6089568
scalar FogSequentialForward.fog[63].dispatcher remoteJobs 6089718
scalar FogSequentialForward.fog[63].dispatcher probeQueries 0
scalar FogSequentialForward.fog[63].dispatcher probeAnswers 0
scalar FogSequentialForward.fog[63].dispatcher droppedJobsSLA 1442
scalar FogSequentialForward.fog[63].dispatcher jobs_class_1 6105994
scalar FogSequentialForward.fog[63].dispatcher remoteJobs_class_1 6089718
scalar FogSequentialForward.fog[63].dispatcher localJobs_class_1 14834
scalar FogSequentialForward.fog[63].dispatcher droppedJobsSLA_class_1 1442
scalar FogSequentialForward.fog[63].server[0] rho 0.99998944997787
scalar FogSequentialForward.fog[63].server[0] congestionRatio 0
scalar FogSequentialForward.fog[63].server[0] totalJobs 14834
scalar FogSequentialForward.fog[63].server[0] droppedJobsQueue 741
scalar FogSequentialForward.fog[63].server[0] droppedJobsTimout 0
scalar FogSequentialForward.fog[63].server[0] droppedJobsSLA 9111
scalar FogSequentialForward.fog[63].server[0] droppedJobsTotal 9852
scalar FogSequentialForward.fog[64].dispatcher localJobs 14813
scalar FogSequentialForward.fog[64].dispatcher internalJobs 16236
scalar FogSequentialForward.fog[64].dispatcher externalJobs 6093171
scalar FogSequentialForward.fog[64].dispatcher remoteJobs 6093197
scalar FogSequentialForward.fog[64].dispatcher probeQueries 0
scalar FogSequentialForward.fog[64].dispatcher probeAnswers 0
scalar FogSequentialForward.fog[64].dispatcher droppedJobsSLA 1397
scalar FogSequentialForward.fog[64].dispatcher jobs_class_1 6109407
scalar FogSequentialForward.fog[64].dispatcher remoteJobs_class_1 6093197
scalar FogSequentialForward.fog[64].dispatcher localJobs_class_1 14813
scalar FogSequentialForward.fog[64].dispatcher droppedJobsSLA_class_1 1397
scalar FogSequentialForward.fog[64].server[0] rho 0.99998992681503
scalar FogSequentialForward.fog[64].server[0] congestionRatio 0
scalar FogSequentialForward.fog[64].server[0] totalJobs 14813
scalar FogSequentialForward.fog[64].server[0] droppedJobsQueue 742
scalar FogSequentialForward.fog[64].server[0] droppedJobsTimout 0
scalar FogSequentialForward.fog[64].server[0] droppedJobsSLA 9154
scalar FogSequentialForward.fog[64].server[0] droppedJobsTotal 9896
scalar FogSequentialForward.fog[65].dispatcher localJobs 14772
scalar FogSequentialForward.fog[65].dispatcher internalJobs 16227
scalar FogSequentialForward.fog[65].dispatcher externalJobs 6090270
scalar FogSequentialForward.fog[65].dispatcher remoteJobs 6090259
scalar FogSequentialForward.fog[65].dispatcher probeQueries 0
scalar FogSequentialForward.fog[65].dispatcher probeAnswers 0
scalar FogSequentialForward.fog[65].dispatcher droppedJobsSLA 1466
scalar FogSequentialForward.fog[65].dispatcher jobs_class_1 6106497
scalar FogSequentialForward.fog[65].dispatcher remoteJobs_class_1 6090259
scalar FogSequentialForward.fog[65].dispatcher localJobs_class_1 14772
scalar FogSequentialForward.fog[65].dispatcher droppedJobsSLA_class_1 1466
[...]
scalar FogSequentialForward.fog[84].dispatcher probeAnswers 0
scalar FogSequentialForward.fog[84].dispatcher droppedJobsSLA 1428
scalar FogSequentialForward.fog[84].dispatcher jobs_class_1 6107140
scalar FogSequentialForward.fog[84].dispatcher remoteJobs_class_1 6091016
scalar FogSequentialForward.fog[84].dispatcher localJobs_class_1 14696
scalar FogSequentialForward.fog[84].dispatcher droppedJobsSLA_class_1 1428
scalar FogSequentialForward.fog[84].server[0] rho 0.99998879432678
scalar FogSequentialForward.fog[84].server[0] congestionRatio 0
scalar FogSequentialForward.fog[84].server[0] totalJobs 14696
scalar FogSequentialForward.fog[84].server[0] droppedJobsQueue 734
scalar FogSequentialForward.fog[84].server[0] droppedJobsTimout 0
scalar FogSequentialForward.fog[84].server[0] droppedJobsSLA 9089
scalar FogSequentialForward.fog[84].server[0] droppedJobsTotal 9823
scalar FogSequentialForward.fog[85].dispatcher localJobs 14828
scalar FogSequentialForward.fog[85].dispatcher internalJobs 16451
scalar FogSequentialForward.fog[85].dispatcher externalJobs 6091027
scalar FogSequentialForward.fog[85].dispatcher remoteJobs 6091151
scalar FogSequentialForward.fog[85].dispatcher probeQueries 0
scalar FogSequentialForward.fog[85].dispatcher probeAnswers 0
scalar FogSequentialForward.fog[85].dispatcher droppedJobsSLA 1499
scalar FogSequentialForward.fog[85].dispatcher jobs_class_1 6107478
scalar FogSequentialForward.fog[85].dispatcher remoteJobs_class_1 6091151
scalar FogSequentialForward.fog[85].dispatcher localJobs_class_1 14828
scalar FogSequentialForward.fog[85].dispatcher droppedJobsSLA_class_1 1499
scalar FogSequentialForward.fog[85].server[0] rho 0.99998533725739
scalar FogSequentialForward.fog[85].server[0] congestionRatio 0
scalar FogSequentialForward.fog[85].server[0] totalJobs 14828
scalar FogSequentialForward.fog[85].server[0] droppedJobsQueue 740
scalar FogSequentialForward.fog[85].server[0] droppedJobsTimout 0
scalar FogSequentialForward.fog[85].server[0] droppedJobsSLA 9099
scalar FogSequentialForward.fog[85].server[0] droppedJobsTotal 9839
scalar FogSequentialForward.fog[86].dispatcher localJobs 14824
scalar FogSequentialForward.fog[86].dispatcher internalJobs 16145
scalar FogSequentialForward.fog[86].dispatcher externalJobs 6092942
scalar FogSequentialForward.fog[86].dispatcher remoteJobs 6092796
scalar FogSequentialForward.fog[86].dispatcher probeQueries 0
scalar FogSequentialForward.fog[86].dispatcher probeAnswers 0
scalar FogSequentialForward.fog[86].dispatcher droppedJobsSLA 1467
scalar FogSequentialForward.fog[86].dispatcher jobs_class_1 6109087
scalar FogSequentialForward.fog[86].dispatcher remoteJobs_class_1 6092796
scalar FogSequentialForward.fog[86].dispatcher localJobs_class_1 14824
scalar FogSequentialForward.fog[86].dispatcher droppedJobsSLA_class_1 1467
scalar FogSequentialForward.fog[86].server[0] rho 0.99998706579208
scalar FogSequentialForward.fog[86].server[0] congestionRatio 0
scalar FogSequentialForward.fog[86].server[0] totalJobs 14824
scalar FogSequentialForward.fog[86].server[0] droppedJobsQueue 738
scalar FogSequentialForward.fog[86].server[0] droppedJobsTimout 0
scalar FogSequentialForward.fog[86].server[0] droppedJobsSLA 9082
scalar FogSequentialForward.fog[86].server[0] droppedJobsTotal 9820
scalar FogSequentialForward.fog[87].dispatcher localJobs 14780
scalar FogSequentialForward.fog[87].dispatcher internalJobs 16098
scalar FogSequentialForward.fog[87].dispatcher externalJobs 6088253
scalar FogSequentialForward.fog[87].dispatcher remoteJobs 6088204
scalar FogSequentialForward.fog[87].dispatcher probeQueries 0
scalar FogSequentialForward.fog[87].dispatcher probeAnswers 0
scalar FogSequentialForward.fog[87].dispatcher droppedJobsSLA 1367
scalar FogSequentialForward.fog[87].dispatcher jobs_class_1 6104351
scalar FogSequentialForward.fog[87].dispatcher remoteJobs_class_1 6088204
scalar FogSequentialForward.fog[87].dispatcher localJobs_class_1 14780
scalar FogSequentialForward.fog[87].dispatcher droppedJobsSLA_class_1 1367
scalar FogSequentialForward.fog[87].server[0] rho 0.99998754262924
scalar FogSequentialForward.fog[87].server[0] congestionRatio 0
scalar FogSequentialForward.fog[87].server[0] totalJobs 14780
scalar FogSequentialForward.fog[87].server[0] droppedJobsQueue 735
scalar FogSequentialForward.fog[87].server[0] droppedJobsTimout 0
scalar FogSequentialForward.fog[87].server[0] droppedJobsSLA 9068
scalar FogSequentialForward.fog[87].server[0] droppedJobsTotal 9803
scalar FogSequentialForward.fog[88].dispatcher localJobs 14813
scalar FogSequentialForward.fog[88].dispatcher internalJobs 16334
scalar FogSequentialForward.fog[88].dispatcher externalJobs 6092758
scalar FogSequentialForward.fog[88].dispatcher remoteJobs 6092818
scalar FogSequentialForward.fog[88].dispatcher probeQueries 0
scalar FogSequentialForward.fog[88].dispatcher probeAnswers 0
scalar FogSequentialForward.fog[88].dispatcher droppedJobsSLA 1461
scalar FogSequentialForward.fog[88].dispatcher jobs_class_1 6109092
scalar FogSequentialForward.fog[88].dispatcher remoteJobs_class_1 6092818
scalar FogSequentialForward.fog[88].dispatcher localJobs_class_1 14813
scalar FogSequentialForward.fog[88].dispatcher droppedJobsSLA_class_1 1461
scalar FogSequentialForward.fog[88].server[0] rho 0.99999105930328
scalar FogSequentialForward.fog[88].server[0] congestionRatio 0
scalar FogSequentialForward.fog[88].server[0] totalJobs 14813
scalar FogSequentialForward.fog[88].server[0] droppedJobsQueue 740
scalar FogSequentialForward.fog[88].server[0] droppedJobsTimout 0
scalar FogSequentialForward.fog[88].server[0] droppedJobsSLA 9089
scalar FogSequentialForward.fog[88].server[0] droppedJobsTotal 9829
scalar FogSequentialForward.fog[89].dispatcher localJobs 14811
scalar FogSequentialForward.fog[89].dispatcher internalJobs 16169
scalar FogSequentialForward.fog[89].dispatcher externalJobs 6087516
scalar FogSequentialForward.fog[89].dispatcher remoteJobs 6087400
scalar FogSequentialForward.fog[89].dispatcher probeQueries 0
scalar FogSequentialForward.fog[89].dispatcher probeAnswers 0
scalar FogSequentialForward.fog[89].dispatcher droppedJobsSLA 1474
scalar FogSequentialForward.fog[89].dispatcher jobs_class_1 6103685
scalar FogSequentialForward.fog[89].dispatcher remoteJobs_class_1 6087400
scalar FogSequentialForward.fog[89].dispatcher localJobs_class_1 14811
scalar FogSequentialForward.fog[89].dispatcher droppedJobsSLA_class_1 1474
scalar FogSequentialForward.fog[89].server[0] rho 0.99998807907104
scalar FogSequentialForward.fog[89].server[0] congestionRatio 0
scalar FogSequentialForward.fog[89].server[0] totalJobs 14811
scalar FogSequentialForward.fog[89].server[0] droppedJobsQueue 739
scalar FogSequentialForward.fog[89].server[0] droppedJobsTimout 0
scalar FogSequentialForward.fog[89].server[0] droppedJobsSLA 9089
scalar FogSequentialForward.fog[89].server[0] droppedJobsTotal 9828
scalar FogSequentialForward.fog[90].dispatcher localJobs 14755
scalar FogSequentialForward.fog[90].dispatcher internalJobs 16177
scalar FogSequentialForward.fog[90].dispatcher externalJobs 6092342
scalar FogSequentialForward.fog[90].dispatcher remoteJobs 6092358
scalar FogSequentialForward.fog[90].dispatcher probeQueries 0
scalar FogSequentialForward.fog[90].dispatcher probeAnswers 0
scalar FogSequentialForward.fog[90].dispatcher droppedJobsSLA 1406
scalar FogSequentialForward.fog[90].dispatcher jobs_class_1 6108519
scalar FogSequentialForward.fog[90].dispatcher remoteJobs_class_1 6092358
scalar FogSequentialForward.fog[90].dispatcher localJobs_class_1 14755
scalar FogSequentialForward.fog[90].dispatcher droppedJobsSLA_class_1 1406
scalar FogSequentialForward.fog[90].server[0] rho 0.99998664855957
scalar FogSequentialForward.fog[90].server[0] congestionRatio 0
scalar FogSequentialForward.fog[90].server[0] totalJobs 14755
scalar FogSequentialForward.fog[90].server[0] droppedJobsQueue 737
scalar FogSequentialForward.fog[90].server[0] droppedJobsTimout 0
scalar FogSequentialForward.fog[90].server[0] droppedJobsSLA 9068
scalar FogSequentialForward.fog[90].server[0] droppedJobsTotal 9805
scalar FogSequentialForward.fog[91].dispatcher localJobs 14753
scalar FogSequentialForward.fog[91].dispatcher internalJobs 16108
scalar FogSequentialForward.fog[91].dispatcher externalJobs 6090516
scalar FogSequentialForward.fog[91].dispatcher remoteJobs 6090483
scalar FogSequentialForward.fog[91].dispatcher probeQueries 0
scalar FogSequentialForward.fog[91].dispatcher probeAnswers 0
scalar FogSequentialForward.fog[91].dispatcher droppedJobsSLA 1388
scalar FogSequentialForward.fog[91].dispatcher jobs_class_1 6106624
scalar FogSequentialForward.fog[91].dispatcher remoteJobs_class_1 6090483
scalar FogSequentialForward.fog[91].dispatcher localJobs_class_1 14753
scalar FogSequentialForward.fog[91].dispatcher droppedJobsSLA_class_1 1388
scalar FogSequentialForward.fog[91].server[0] rho 0.99998891353607
scalar FogSequentialForward.fog[91].server[0] congestionRatio 0
scalar FogSequentialForward.fog[91].server[0] totalJobs 14753
scalar FogSequentialForward.fog[91].server[0] droppedJobsQueue 737
scalar FogSequentialForward.fog[91].server[0] droppedJobsTimout 0
scalar FogSequentialForward.fog[91].server[0] droppedJobsSLA 9044
scalar FogSequentialForward.fog[91].server[0] droppedJobsTotal 9781
scalar FogSequentialForward.fog[92].dispatcher localJobs 14762
scalar FogSequentialForward.fog[92].dispatcher internalJobs 16121
scalar FogSequentialForward.fog[92].dispatcher externalJobs 6094728
scalar FogSequentialForward.fog[92].dispatcher remoteJobs 6094699
scalar FogSequentialForward.fog[92].dispatcher probeQueries 0
scalar FogSequentialForward.fog[92].dispatcher probeAnswers 0
scalar FogSequentialForward.fog[92].dispatcher droppedJobsSLA 1388
scalar FogSequentialForward.fog[92].dispatcher jobs_class_1 6110849
scalar FogSequentialForward.fog[92].dispatcher remoteJobs_class_1 6094699
scalar FogSequentialForward.fog[92].dispatcher localJobs_class_1 14762
scalar FogSequentialForward.fog[92].dispatcher droppedJobsSLA_class_1 1388
scalar FogSequentialForward.fog[92].server[0] rho 0.9999868273735
scalar FogSequentialForward.fog[92].server[0] congestionRatio 0
scalar FogSequentialForward.fog[92].server[0] totalJobs 14762
scalar FogSequentialForward.fog[92].server[0] droppedJobsQueue 737
scalar FogSequentialForward.fog[92].server[0] droppedJobsTimout 0
scalar FogSequentialForward.fog[92].server[0] droppedJobsSLA 9056
scalar FogSequentialForward.fog[92].server[0] droppedJobsTotal 9793
scalar FogSequentialForward.fog[93].dispatcher localJobs 14752
scalar FogSequentialForward.fog[93].dispatcher internalJobs 16192
scalar FogSequentialForward.fog[93].dispatcher externalJobs 6093847
scalar FogSequentialForward.fog[93].dispatcher remoteJobs 6093820
scalar FogSequentialForward.fog[93].dispatcher probeQueries 0
scalar FogSequentialForward.fog[93].dispatcher probeAnswers 0
scalar FogSequentialForward.fog[93].dispatcher droppedJobsSLA 1467
scalar FogSequentialForward.fog[93].dispatcher jobs_class_1 6110039
scalar FogSequentialForward.fog[93].dispatcher remoteJobs_class_1 6093820
scalar FogSequentialForward.fog[93].dispatcher localJobs_class_1 14752
scalar FogSequentialForward.fog[93].dispatcher droppedJobsSLA_class_1 1467
scalar FogSequentialForward.fog[93].server[0] rho 0.99997961521149
scalar FogSequentialForward.fog[93].server[0] congestionRatio 0
scalar FogSequentialForward.fog[93].server[0] totalJobs 14752
scalar FogSequentialForward.fog[93].server[0] droppedJobsQueue 735
scalar FogSequentialForward.fog[93].server[0] droppedJobsTimout 0
scalar FogSequentialForward.fog[93].server[0] droppedJobsSLA 9071
scalar FogSequentialForward.fog[93].server[0] droppedJobsTotal 9806
scalar FogSequentialForward.fog[94].dispatcher localJobs 14783
scalar FogSequentialForward.fog[94].dispatcher internalJobs 16440
scalar FogSequentialForward.fog[94].dispatcher externalJobs 6087805
scalar FogSequentialForward.fog[94].dispatcher remoteJobs 6088022
scalar FogSequentialForward.fog[94].dispatcher probeQueries 0
scalar FogSequentialForward.fog[94].dispatcher probeAnswers 0
scalar FogSequentialForward.fog[94].dispatcher droppedJobsSLA 1440
scalar FogSequentialForward.fog[94].dispatcher jobs_class_1 6104245
scalar FogSequentialForward.fog[94].dispatcher remoteJobs_class_1 6088022
scalar FogSequentialForward.fog[94].dispatcher localJobs_class_1 14783
scalar FogSequentialForward.fog[94].dispatcher droppedJobsSLA_class_1 1440
scalar FogSequentialForward.fog[94].server[0] rho 0.99998307228088
scalar FogSequentialForward.fog[94].server[0] congestionRatio 0
scalar FogSequentialForward.fog[94].server[0] totalJobs 14783
scalar FogSequentialForward.fog[94].server[0] droppedJobsQueue 736
scalar FogSequentialForward.fog[94].server[0] droppedJobsTimout 0
scalar FogSequentialForward.fog[94].server[0] droppedJobsSLA 9085
scalar FogSequentialForward.fog[94].server[0] droppedJobsTotal 9821
scalar FogSequentialForward.fog[95].dispatcher localJobs 14771
scalar FogSequentialForward.fog[95].dispatcher internalJobs 16085
scalar FogSequentialForward.fog[95].dispatcher externalJobs 6093703
scalar FogSequentialForward.fog[95].dispatcher remoteJobs 6093568
scalar FogSequentialForward.fog[95].dispatcher probeQueries 0
scalar FogSequentialForward.fog[95].dispatcher probeAnswers 0
scalar FogSequentialForward.fog[95].dispatcher droppedJobsSLA 1449
scalar FogSequentialForward.fog[95].dispatcher jobs_class_1 6109788
scalar FogSequentialForward.fog[95].dispatcher remoteJobs_class_1 6093568
scalar FogSequentialForward.fog[95].dispatcher localJobs_class_1 14771
scalar FogSequentialForward.fog[95].dispatcher droppedJobsSLA_class_1 1449
scalar FogSequentialForward.fog[95].server[0] rho 0.99997717142105
scalar FogSequentialForward.fog[95].server[0] congestionRatio 0
scalar FogSequentialForward.fog[95].server[0] totalJobs 14771
scalar FogSequentialForward.fog[95].server[0] droppedJobsQueue 740
scalar FogSequentialForward.fog[95].server[0] droppedJobsTimout 0
scalar FogSequentialForward.fog[95].server[0] droppedJobsSLA 9080
scalar FogSequentialForward.fog[95].server[0] droppedJobsTotal 9820
scalar FogSequentialForward.fog[96].dispatcher localJobs 14750
scalar FogSequentialForward.fog[96].dispatcher internalJobs 16152
scalar FogSequentialForward.fog[96].dispatcher externalJobs 6090806
scalar FogSequentialForward.fog[96].dispatcher remoteJobs 6090759
scalar FogSequentialForward.fog[96].dispatcher probeQueries 0
scalar FogSequentialForward.fog[96].dispatcher probeAnswers 0
scalar FogSequentialForward.fog[96].dispatcher droppedJobsSLA 1449
scalar FogSequentialForward.fog[96].dispatcher jobs_class_1 6106958
scalar FogSequentialForward.fog[96].dispatcher remoteJobs_class_1 6090759
scalar FogSequentialForward.fog[96].dispatcher localJobs_class_1 14750
scalar FogSequentialForward.fog[96].dispatcher droppedJobsSLA_class_1 1449
scalar FogSequentialForward.fog[96].server[0] rho 0.9999852180481
scalar FogSequentialForward.fog[96].server[0] congestionRatio 0
scalar FogSequentialForward.fog[96].server[0] totalJobs 14750
scalar FogSequentialForward.fog[96].server[0] droppedJobsQueue 735
scalar FogSequentialForward.fog[96].server[0] droppedJobsTimout 0
scalar FogSequentialForward.fog[96].server[0] droppedJobsSLA 9089
scalar FogSequentialForward.fog[96].server[0] droppedJobsTotal 9824
scalar FogSequentialForward.fog[97].dispatcher localJobs 14828
scalar FogSequentialForward.fog[97].dispatcher internalJobs 16303
scalar FogSequentialForward.fog[97].dispatcher externalJobs 6091393
scalar FogSequentialForward.fog[97].dispatcher remoteJobs 6091446
scalar FogSequentialForward.fog[97].dispatcher probeQueries 0
scalar FogSequentialForward.fog[97].dispatcher probeAnswers 0
scalar FogSequentialForward.fog[97].dispatcher droppedJobsSLA 1422
scalar FogSequentialForward.fog[97].dispatcher jobs_class_1 6107696
scalar FogSequentialForward.fog[97].dispatcher remoteJobs_class_1 6091446
scalar FogSequentialForward.fog[97].dispatcher localJobs_class_1 14828
scalar FogSequentialForward.fog[97].dispatcher droppedJobsSLA_class_1 1422
scalar FogSequentialForward.fog[97].server[0] rho 0.99998551607132
scalar FogSequentialForward.fog[97].server[0] congestionRatio 0
scalar FogSequentialForward.fog[97].server[0] totalJobs 14828
scalar FogSequentialForward.fog[97].server[0] droppedJobsQueue 739
scalar FogSequentialForward.fog[97].server[0] droppedJobsTimout 0
scalar FogSequentialForward.fog[97].server[0] droppedJobsSLA 9144
scalar FogSequentialForward.fog[97].server[0] droppedJobsTotal 9883
scalar FogSequentialForward.fog[98].dispatcher localJobs 14838
scalar FogSequentialForward.fog[98].dispatcher internalJobs 16061
scalar FogSequentialForward.fog[98].dispatcher externalJobs 6093716
scalar FogSequentialForward.fog[98].dispatcher remoteJobs 6093486
scalar FogSequentialForward.fog[98].dispatcher probeQueries 0
scalar FogSequentialForward.fog[98].dispatcher probeAnswers 0
scalar FogSequentialForward.fog[98].dispatcher droppedJobsSLA 1453
scalar FogSequentialForward.fog[98].dispatcher jobs_class_1 6109777
scalar FogSequentialForward.fog[98].dispatcher remoteJobs_class_1 6093486
scalar FogSequentialForward.fog[98].dispatcher localJobs_class_1 14838
scalar FogSequentialForward.fog[98].dispatcher droppedJobsSLA_class_1 1453
scalar FogSequentialForward.fog[98].server[0] rho 0.99998688697815
scalar FogSequentialForward.fog[98].server[0] congestionRatio 0
scalar FogSequentialForward.fog[98].server[0] totalJobs 14838
scalar FogSequentialForward.fog[98].server[0] droppedJobsQueue 739
scalar FogSequentialForward.fog[98].server[0] droppedJobsTimout 0
scalar FogSequentialForward.fog[98].server[0] droppedJobsSLA 9159
scalar FogSequentialForward.fog[98].server[0] droppedJobsTotal 9898
scalar FogSequentialForward.fog[99].dispatcher localJobs 14776
scalar FogSequentialForward.fog[99].dispatcher internalJobs 16038
scalar FogSequentialForward.fog[99].dispatcher externalJobs 6086543
scalar FogSequentialForward.fog[99].dispatcher remoteJobs 6086324
scalar FogSequentialForward.fog[99].dispatcher probeQueries 0
scalar FogSequentialForward.fog[99].dispatcher probeAnswers 0
scalar FogSequentialForward.fog[99].dispatcher droppedJobsSLA 1481
scalar FogSequentialForward.fog[99].dispatcher jobs_class_1 6102581
scalar FogSequentialForward.fog[99].dispatcher remoteJobs_class_1 6086324
scalar FogSequentialForward.fog[99].dispatcher localJobs_class_1 14776
scalar FogSequentialForward.fog[99].dispatcher droppedJobsSLA_class_1 1481
scalar FogSequentialForward.fog[99].server[0] rho 0.99998944997787
scalar FogSequentialForward.fog[99].server[0] congestionRatio 0
scalar FogSequentialForward.fog[99].server[0] totalJobs 14776
scalar FogSequentialForward.fog[99].server[0] droppedJobsQueue 739
scalar FogSequentialForward.fog[99].server[0] droppedJobsTimout 0
scalar FogSequentialForward.fog[99].server[0] droppedJobsSLA 9127
scalar FogSequentialForward.fog[99].server[0] droppedJobsTotal 9866
scalar FogSequentialForward.sink avg_responseTime_1 11.898364927557
scalar FogSequentialForward.sink p90_responseTime_1 1.610242056619
scalar FogSequentialForward.sink med_responseTime_1 1.610242056619
scalar FogSequentialForward.sink avg_delayTime_1 0
scalar FogSequentialForward.sink p90_delayTime_1 0
scalar FogSequentialForward.sink med_delayTime_1 0
scalar FogSequentialForward.sink avg_queuingTime_1 7.1907254071632
scalar FogSequentialForward.sink p90_queuingTime_1 0
scalar FogSequentialForward.sink med_queuingTime_1 0
scalar FogSequentialForward.sink avg_serviceTime_1 1.671847209338
scalar FogSequentialForward.sink p90_serviceTime_1 1.493821537584
scalar FogSequentialForward.sink med_serviceTime_1 1.493821537584
scalar FogSequentialForward.sink avg_balancerTime_1 3.0357923110554
scalar FogSequentialForward.sink p90_balancerTime_1 0
scalar FogSequentialForward.sink med_balancerTime_1 0
scalar FogSequentialForward.sink avg_balancerCount_1 182.78397072189
scalar FogSequentialForward.sink p90_balancerCount_1 1
scalar FogSequentialForward.sink med_balancerCount_1 1

