version 2
run Fog-mul_10-rho_02-thr_8-4-20190714-01:56:45-89039
attr configname Fog-mul_10-rho_02-thr_8
attr datetime 20190714-01:56:45
attr experiment Fog-mul_10-rho_02-thr_8
attr inifile FogSequentialForward.ini
attr iterationvars ""
attr iterationvarsf ""
attr measurement ""
attr network FogSequentialForward
attr processid 89039
attr repetition 4
attr replication #4
attr resultdir results
attr runnumber 4
attr seedset 4
param FogSequentialForward.proctimeMul 1.0
param FogSequentialForward.rho 0.2
param FogSequentialForward.fog[*].dispatcher.thr 8
param FogSequentialForward.nSources 100
param FogSequentialForward.rho 0.9
param FogSequentialForward.proctimeMul 1.0
param FogSequentialForward.source[*].appId 1
param FogSequentialForward.source[*].realTime true
param FogSequentialForward.source[*].multiHop true
param FogSequentialForward.fog[*].nServers 1
param FogSequentialForward.fog[*].dispatcher.fanOut 1
param FogSequentialForward.fog[*].server[*].timeSlice -1s
param FogSequentialForward.fog[*].server[*].timeout -1s
param FogSequentialForward.fog[*].server[*].capacity 20
param FogSequentialForward.fog[*].server[*].fifo true
param FogSequentialForward.fog[*].server[*].maxServiceTime -1s
param FogSequentialForward.fog[*].dispatcher.thr 1

scalar FogSequentialForward.fog[0].dispatcher localJobs 3506
scalar FogSequentialForward.fog[0].dispatcher internalJobs 3505
scalar FogSequentialForward.fog[0].dispatcher externalJobs 1
scalar FogSequentialForward.fog[0].dispatcher remoteJobs 0
scalar FogSequentialForward.fog[0].dispatcher probeQueries 0
scalar FogSequentialForward.fog[0].dispatcher probeAnswers 0
scalar FogSequentialForward.fog[0].dispatcher droppedJobsSLA 0
scalar FogSequentialForward.fog[0].dispatcher jobs_class_1 3506
scalar FogSequentialForward.fog[0].dispatcher localJobs_class_1 3506
scalar FogSequentialForward.fog[0].server[0] rho 0.54177433252335
scalar FogSequentialForward.fog[0].server[0] congestionRatio 0
scalar FogSequentialForward.fog[0].server[0] totalJobs 3506
scalar FogSequentialForward.fog[0].server[0] droppedJobsQueue 0
scalar FogSequentialForward.fog[0].server[0] droppedJobsTimout 0
scalar FogSequentialForward.fog[0].server[0] droppedJobsSLA 0
scalar FogSequentialForward.fog[0].server[0] droppedJobsTotal 0
scalar FogSequentialForward.fog[1].dispatcher localJobs 3607
scalar FogSequentialForward.fog[1].dispatcher internalJobs 3606
scalar FogSequentialForward.fog[1].dispatcher externalJobs 1
scalar FogSequentialForward.fog[1].dispatcher remoteJobs 0
scalar FogSequentialForward.fog[1].dispatcher probeQueries 0
scalar FogSequentialForward.fog[1].dispatcher probeAnswers 0
scalar FogSequentialForward.fog[1].dispatcher droppedJobsSLA 0
scalar FogSequentialForward.fog[1].dispatcher jobs_class_1 3607
scalar FogSequentialForward.fog[1].dispatcher localJobs_class_1 3607
scalar FogSequentialForward.fog[1].server[0] rho 0.55767410993576
scalar FogSequentialForward.fog[1].server[0] congestionRatio 0
scalar FogSequentialForward.fog[1].server[0] totalJobs 3607
scalar FogSequentialForward.fog[1].server[0] droppedJobsQueue 0
scalar FogSequentialForward.fog[1].server[0] droppedJobsTimout 0
scalar FogSequentialForward.fog[1].server[0] droppedJobsSLA 0
scalar FogSequentialForward.fog[1].server[0] droppedJobsTotal 0
scalar FogSequentialForward.fog[2].dispatcher localJobs 3552
scalar FogSequentialForward.fog[2].dispatcher internalJobs 3551
scalar FogSequentialForward.fog[2].dispatcher externalJobs 1
scalar FogSequentialForward.fog[2].dispatcher remoteJobs 0
scalar FogSequentialForward.fog[2].dispatcher probeQueries 0
scalar FogSequentialForward.fog[2].dispatcher probeAnswers 0
scalar FogSequentialForward.fog[2].dispatcher droppedJobsSLA 0
scalar FogSequentialForward.fog[2].dispatcher jobs_class_1 3552
scalar FogSequentialForward.fog[2].dispatcher localJobs_class_1 3552
scalar FogSequentialForward.fog[2].server[0] rho 0.54877871274948
scalar FogSequentialForward.fog[2].server[0] congestionRatio 0
scalar FogSequentialForward.fog[2].server[0] totalJobs 3552
scalar FogSequentialForward.fog[2].server[0] droppedJobsQueue 0
scalar FogSequentialForward.fog[2].server[0] droppedJobsTimout 0
scalar FogSequentialForward.fog[2].server[0] droppedJobsSLA 0
scalar FogSequentialForward.fog[2].server[0] droppedJobsTotal 0
scalar FogSequentialForward.fog[3].dispatcher localJobs 3516
scalar FogSequentialForward.fog[3].dispatcher internalJobs 3514
scalar FogSequentialForward.fog[3].dispatcher externalJobs 3
scalar FogSequentialForward.fog[3].dispatcher remoteJobs 1
scalar FogSequentialForward.fog[3].dispatcher probeQueries 0
scalar FogSequentialForward.fog[3].dispatcher probeAnswers 0
scalar FogSequentialForward.fog[3].dispatcher droppedJobsSLA 0
scalar FogSequentialForward.fog[3].dispatcher jobs_class_1 3517
scalar FogSequentialForward.fog[3].dispatcher remoteJobs_class_1 1
scalar FogSequentialForward.fog[3].dispatcher localJobs_class_1 3516
scalar FogSequentialForward.fog[3].server[0] rho 0.54338562488556
scalar FogSequentialForward.fog[3].server[0] congestionRatio 0
scalar FogSequentialForward.fog[3].server[0] totalJobs 3516
scalar FogSequentialForward.fog[3].server[0] droppedJobsQueue 0
scalar FogSequentialForward.fog[3].server[0] droppedJobsTimout 0
scalar FogSequentialForward.fog[3].server[0] droppedJobsSLA 0
scalar FogSequentialForward.fog[3].server[0] droppedJobsTotal 0
scalar FogSequentialForward.fog[4].dispatcher localJobs 3589
scalar FogSequentialForward.fog[4].dispatcher internalJobs 3590
scalar FogSequentialForward.fog[4].dispatcher externalJobs 0
scalar FogSequentialForward.fog[4].dispatcher remoteJobs 1
scalar FogSequentialForward.fog[4].dispatcher probeQueries 0
scalar FogSequentialForward.fog[4].dispatcher probeAnswers 0
scalar FogSequentialForward.fog[4].dispatcher droppedJobsSLA 0
scalar FogSequentialForward.fog[4].dispatcher jobs_class_1 3590
scalar FogSequentialForward.fog[4].dispatcher remoteJobs_class_1 1
scalar FogSequentialForward.fog[4].dispatcher localJobs_class_1 3589
scalar FogSequentialForward.fog[4].server[0] rho 0.55477684736252
scalar FogSequentialForward.fog[4].server[0] congestionRatio 0
scalar FogSequentialForward.fog[4].server[0] totalJobs 3589
scalar FogSequentialForward.fog[4].server[0] droppedJobsQueue 0
scalar FogSequentialForward.fog[4].server[0] droppedJobsTimout 0
scalar FogSequentialForward.fog[4].server[0] droppedJobsSLA 0
scalar FogSequentialForward.fog[4].server[0] droppedJobsTotal 0
scalar FogSequentialForward.fog[5].dispatcher localJobs 3589
scalar FogSequentialForward.fog[5].dispatcher internalJobs 3590
scalar FogSequentialForward.fog[5].dispatcher externalJobs 0
scalar FogSequentialForward.fog[5].dispatcher remoteJobs 1
scalar FogSequentialForward.fog[5].dispatcher probeQueries 0
scalar FogSequentialForward.fog[5].dispatcher probeAnswers 0
scalar FogSequentialForward.fog[5].dispatcher droppedJobsSLA 0
scalar FogSequentialForward.fog[5].dispatcher jobs_class_1 3590
scalar FogSequentialForward.fog[5].dispatcher remoteJobs_class_1 1
scalar FogSequentialForward.fog[5].dispatcher localJobs_class_1 3589
scalar FogSequentialForward.fog[5].server[0] rho 0.55497640371323
scalar FogSequentialForward.fog[5].server[0] congestionRatio 0
scalar FogSequentialForward.fog[5].server[0] totalJobs 3589
scalar FogSequentialForward.fog[5].server[0] droppedJobsQueue 0
scalar FogSequentialForward.fog[5].server[0] droppedJobsTimout 0
scalar FogSequentialForward.fog[5].server[0] droppedJobsSLA 0
scalar FogSequentialForward.fog[5].server[0] droppedJobsTotal 0
scalar FogSequentialForward.fog[6].dispatcher localJobs 3445
scalar FogSequentialForward.fog[6].dispatcher internalJobs 3446
scalar FogSequentialForward.fog[6].dispatcher externalJobs 1
scalar FogSequentialForward.fog[6].dispatcher remoteJobs 2
scalar FogSequentialForward.fog[6].dispatcher probeQueries 0
scalar FogSequentialForward.fog[6].dispatcher probeAnswers 0
scalar FogSequentialForward.fog[6].dispatcher droppedJobsSLA 0
scalar FogSequentialForward.fog[6].dispatcher jobs_class_1 3447
scalar FogSequentialForward.fog[6].dispatcher remoteJobs_class_1 2
scalar FogSequentialForward.fog[6].dispatcher localJobs_class_1 3445
scalar FogSequentialForward.fog[6].server[0] rho 0.53257566690445
scalar FogSequentialForward.fog[6].server[0] congestionRatio 0
scalar FogSequentialForward.fog[6].server[0] totalJobs 3445
scalar FogSequentialForward.fog[6].server[0] droppedJobsQueue 0
scalar FogSequentialForward.fog[6].server[0] droppedJobsTimout 0
scalar FogSequentialForward.fog[6].server[0] droppedJobsSLA 0
scalar FogSequentialForward.fog[6].server[0] droppedJobsTotal 0
scalar FogSequentialForward.fog[7].dispatcher localJobs 3474
scalar FogSequentialForward.fog[7].dispatcher internalJobs 3474
scalar FogSequentialForward.fog[7].dispatcher externalJobs 0
scalar FogSequentialForward.fog[7].dispatcher remoteJobs 0
scalar FogSequentialForward.fog[7].dispatcher probeQueries 0
scalar FogSequentialForward.fog[7].dispatcher probeAnswers 0
scalar FogSequentialForward.fog[7].dispatcher droppedJobsSLA 0
scalar FogSequentialForward.fog[7].dispatcher jobs_class_1 3474
scalar FogSequentialForward.fog[7].dispatcher localJobs_class_1 3474
scalar FogSequentialForward.fog[7].server[0] rho 0.53670072555542
scalar FogSequentialForward.fog[7].server[0] congestionRatio 0
scalar FogSequentialForward.fog[7].server[0] totalJobs 3474
scalar FogSequentialForward.fog[7].server[0] droppedJobsQueue 0
scalar FogSequentialForward.fog[7].server[0] droppedJobsTimout 0
scalar FogSequentialForward.fog[7].server[0] droppedJobsSLA 0
scalar FogSequentialForward.fog[7].server[0] droppedJobsTotal 0
scalar FogSequentialForward.fog[8].dispatcher localJobs 3609
scalar FogSequentialForward.fog[8].dispatcher internalJobs 3606
scalar FogSequentialForward.fog[8].dispatcher externalJobs 3
scalar FogSequentialForward.fog[8].dispatcher remoteJobs 0
scalar FogSequentialForward.fog[8].dispatcher probeQueries 0
scalar FogSequentialForward.fog[8].dispatcher probeAnswers 0
scalar FogSequentialForward.fog[8].dispatcher droppedJobsSLA 0
scalar FogSequentialForward.fog[8].dispatcher jobs_class_1 3609
scalar FogSequentialForward.fog[8].dispatcher localJobs_class_1 3609
scalar FogSequentialForward.fog[8].server[0] rho 0.55799770355225
scalar FogSequentialForward.fog[8].server[0] congestionRatio 0
scalar FogSequentialForward.fog[8].server[0] totalJobs 3609
scalar FogSequentialForward.fog[8].server[0] droppedJobsQueue 0
scalar FogSequentialForward.fog[8].server[0] droppedJobsTimout 0
scalar FogSequentialForward.fog[8].server[0] droppedJobsSLA 0
scalar FogSequentialForward.fog[8].server[0] droppedJobsTotal 0
scalar FogSequentialForward.fog[9].dispatcher localJobs 3572
scalar FogSequentialForward.fog[9].dispatcher internalJobs 3573
scalar FogSequentialForward.fog[9].dispatcher externalJobs 1
scalar FogSequentialForward.fog[9].dispatcher remoteJobs 2
scalar FogSequentialForward.fog[9].dispatcher probeQueries 0
scalar FogSequentialForward.fog[9].dispatcher probeAnswers 0
scalar FogSequentialForward.fog[9].dispatcher droppedJobsSLA 0
scalar FogSequentialForward.fog[9].dispatcher jobs_class_1 3574
scalar FogSequentialForward.fog[9].dispatcher remoteJobs_class_1 2
scalar FogSequentialForward.fog[9].dispatcher localJobs_class_1 3572
scalar FogSequentialForward.fog[9].server[0] rho 0.55249816179276
scalar FogSequentialForward.fog[9].server[0] congestionRatio 0
scalar FogSequentialForward.fog[9].server[0] totalJobs 3572
scalar FogSequentialForward.fog[9].server[0] droppedJobsQueue 0
scalar FogSequentialForward.fog[9].server[0] droppedJobsTimout 0
scalar FogSequentialForward.fog[9].server[0] droppedJobsSLA 0
scalar FogSequentialForward.fog[9].server[0] droppedJobsTotal 0
scalar FogSequentialForward.fog[10].dispatcher localJobs 3619
scalar FogSequentialForward.fog[10].dispatcher internalJobs 3620
scalar FogSequentialForward.fog[10].dispatcher externalJobs 1
scalar FogSequentialForward.fog[10].dispatcher remoteJobs 2
scalar FogSequentialForward.fog[10].dispatcher probeQueries 0
scalar FogSequentialForward.fog[10].dispatcher probeAnswers 0
scalar FogSequentialForward.fog[10].dispatcher droppedJobsSLA 0
scalar FogSequentialForward.fog[10].dispatcher jobs_class_1 3621
scalar FogSequentialForward.fog[10].dispatcher remoteJobs_class_1 2
scalar FogSequentialForward.fog[10].dispatcher localJobs_class_1 3619
scalar FogSequentialForward.fog[10].server[0] rho 0.55907547473907
scalar FogSequentialForward.fog[10].server[0] congestionRatio 0
scalar FogSequentialForward.fog[10].server[0] totalJobs 3619
scalar FogSequentialForward.fog[10].server[0] droppedJobsQueue 0
scalar FogSequentialForward.fog[10].server[0] droppedJobsTimout 0
scalar FogSequentialForward.fog[10].server[0] droppedJobsSLA 0
scalar FogSequentialForward.fog[10].server[0] droppedJobsTotal 0
scalar FogSequentialForward.fog[11].dispatcher localJobs 3611
scalar FogSequentialForward.fog[11].dispatcher internalJobs 3610
scalar FogSequentialForward.fog[11].dispatcher externalJobs 1
scalar FogSequentialForward.fog[11].dispatcher remoteJobs 0
scalar FogSequentialForward.fog[11].dispatcher probeQueries 0
scalar FogSequentialForward.fog[11].dispatcher probeAnswers 0
scalar FogSequentialForward.fog[11].dispatcher droppedJobsSLA 0
scalar FogSequentialForward.fog[11].dispatcher jobs_class_1 3611
scalar FogSequentialForward.fog[11].dispatcher localJobs_class_1 3611
scalar FogSequentialForward.fog[11].server[0] rho 0.55840760469437
scalar FogSequentialForward.fog[11].server[0] congestionRatio 0
scalar FogSequentialForward.fog[11].server[0] totalJobs 3611
scalar FogSequentialForward.fog[11].server[0] droppedJobsQueue 0
scalar FogSequentialForward.fog[11].server[0] droppedJobsTimout 0
scalar FogSequentialForward.fog[11].server[0] droppedJobsSLA 0
scalar FogSequentialForward.fog[11].server[0] droppedJobsTotal 0
scalar FogSequentialForward.fog[12].dispatcher localJobs 3613
scalar FogSequentialForward.fog[12].dispatcher internalJobs 3613
scalar FogSequentialForward.fog[12].dispatcher externalJobs 0
scalar FogSequentialForward.fog[12].dispatcher remoteJobs 0
scalar FogSequentialForward.fog[12].dispatcher probeQueries 0
scalar FogSequentialForward.fog[12].dispatcher probeAnswers 0
scalar FogSequentialForward.fog[12].dispatcher droppedJobsSLA 0
scalar FogSequentialForward.fog[12].dispatcher jobs_class_1 3613
scalar FogSequentialForward.fog[12].dispatcher localJobs_class_1 3613
scalar FogSequentialForward.fog[12].server[0] rho 0.55868059396744
scalar FogSequentialForward.fog[12].server[0] congestionRatio 0
scalar FogSequentialForward.fog[12].server[0] totalJobs 3613
scalar FogSequentialForward.fog[12].server[0] droppedJobsQueue 0
scalar FogSequentialForward.fog[12].server[0] droppedJobsTimout 0
scalar FogSequentialForward.fog[12].server[0] droppedJobsSLA 0
scalar FogSequentialForward.fog[12].server[0] droppedJobsTotal 0
scalar FogSequentialForward.fog[13].dispatcher localJobs 3597
scalar FogSequentialForward.fog[13].dispatcher internalJobs 3596
scalar FogSequentialForward.fog[13].dispatcher externalJobs 1
scalar FogSequentialForward.fog[13].dispatcher remoteJobs 0
scalar FogSequentialForward.fog[13].dispatcher probeQueries 0
scalar FogSequentialForward.fog[13].dispatcher probeAnswers 0
scalar FogSequentialForward.fog[13].dispatcher droppedJobsSLA 0
scalar FogSequentialForward.fog[13].dispatcher jobs_class_1 3597
scalar FogSequentialForward.fog[13].dispatcher localJobs_class_1 3597
scalar FogSequentialForward.fog[13].server[0] rho 0.55680114030838
scalar FogSequentialForward.fog[13].server[0] congestionRatio 0
scalar FogSequentialForward.fog[13].server[0] totalJobs 3597
scalar FogSequentialForward.fog[13].server[0] droppedJobsQueue 0
scalar FogSequentialForward.fog[13].server[0] droppedJobsTimout 0
scalar FogSequentialForward.fog[13].server[0] droppedJobsSLA 0
scalar FogSequentialForward.fog[13].server[0] droppedJobsTotal 0
scalar FogSequentialForward.fog[14].dispatcher localJobs 3630
scalar FogSequentialForward.fog[14].dispatcher internalJobs 3632
scalar FogSequentialForward.fog[14].dispatcher externalJobs 0
scalar FogSequentialForward.fog[14].dispatcher remoteJobs 2
scalar FogSequentialForward.fog[14].dispatcher probeQueries 0
scalar FogSequentialForward.fog[14].dispatcher probeAnswers 0
scalar FogSequentialForward.fog[14].dispatcher droppedJobsSLA 0
scalar FogSequentialForward.fog[14].dispatcher jobs_class_1 3632
scalar FogSequentialForward.fog[14].dispatcher remoteJobs_class_1 2
scalar FogSequentialForward.fog[14].dispatcher localJobs_class_1 3630
scalar FogSequentialForward.fog[14].server[0] rho 0.56059366464615
scalar FogSequentialForward.fog[14].server[0] congestionRatio 0
scalar FogSequentialForward.fog[14].server[0] totalJobs 3630
scalar FogSequentialForward.fog[14].server[0] droppedJobsQueue 0
scalar FogSequentialForward.fog[14].server[0] droppedJobsTimout 0
scalar FogSequentialForward.fog[14].server[0] droppedJobsSLA 0
scalar FogSequentialForward.fog[14].server[0] droppedJobsTotal 0
scalar FogSequentialForward.fog[15].dispatcher localJobs 3623
scalar FogSequentialForward.fog[15].dispatcher internalJobs 3627
scalar FogSequentialForward.fog[15].dispatcher externalJobs 0
scalar FogSequentialForward.fog[15].dispatcher remoteJobs 4
scalar FogSequentialForward.fog[15].dispatcher probeQueries 0
scalar FogSequentialForward.fog[15].dispatcher probeAnswers 0
scalar FogSequentialForward.fog[15].dispatcher droppedJobsSLA 0
scalar FogSequentialForward.fog[15].dispatcher jobs_class_1 3627
scalar FogSequentialForward.fog[15].dispatcher remoteJobs_class_1 4
scalar FogSequentialForward.fog[15].dispatcher localJobs_class_1 3623
scalar FogSequentialForward.fog[15].server[0] rho 0.56037801504135
scalar FogSequentialForward.fog[15].server[0] congestionRatio 0
scalar FogSequentialForward.fog[15].server[0] totalJobs 3623
scalar FogSequentialForward.fog[15].server[0] droppedJobsQueue 0
scalar FogSequentialForward.fog[15].server[0] droppedJobsTimout 0
scalar FogSequentialForward.fog[15].server[0] droppedJobsSLA 0
scalar FogSequentialForward.fog[15].server[0] droppedJobsTotal 0
scalar FogSequentialForward.fog[16].dispatcher localJobs 3722
scalar FogSequentialForward.fog[16].dispatcher internalJobs 3720
scalar FogSequentialForward.fog[16].dispatcher externalJobs 2
scalar FogSequentialForward.fog[16].dispatcher remoteJobs 0
scalar FogSequentialForward.fog[16].dispatcher probeQueries 0
scalar FogSequentialForward.fog[16].dispatcher probeAnswers 0
scalar FogSequentialForward.fog[16].dispatcher droppedJobsSLA 0
scalar FogSequentialForward.fog[16].dispatcher jobs_class_1 3722
scalar FogSequentialForward.fog[16].dispatcher localJobs_class_1 3722
scalar FogSequentialForward.fog[16].server[0] rho 0.57558476924896
scalar FogSequentialForward.fog[16].server[0] congestionRatio 0
scalar FogSequentialForward.fog[16].server[0] totalJobs 3722
scalar FogSequentialForward.fog[16].server[0] droppedJobsQueue 0
scalar FogSequentialForward.fog[16].server[0] droppedJobsTimout 0
scalar FogSequentialForward.fog[16].server[0] droppedJobsSLA 0
scalar FogSequentialForward.fog[16].server[0] droppedJobsTotal 0
scalar FogSequentialForward.fog[17].dispatcher localJobs 3609
scalar FogSequentialForward.fog[17].dispatcher internalJobs 3609
scalar FogSequentialForward.fog[17].dispatcher externalJobs 0
scalar FogSequentialForward.fog[17].dispatcher remoteJobs 0
scalar FogSequentialForward.fog[17].dispatcher probeQueries 0
scalar FogSequentialForward.fog[17].dispatcher probeAnswers 0
scalar FogSequentialForward.fog[17].dispatcher droppedJobsSLA 0
scalar FogSequentialForward.fog[17].dispatcher jobs_class_1 3609
scalar FogSequentialForward.fog[17].dispatcher localJobs_class_1 3609
scalar FogSequentialForward.fog[17].server[0] rho 0.5579662322998
scalar FogSequentialForward.fog[17].server[0] congestionRatio 0
scalar FogSequentialForward.fog[17].server[0] totalJobs 3609
scalar FogSequentialForward.fog[17].server[0] droppedJobsQueue 0
scalar FogSequentialForward.fog[17].server[0] droppedJobsTimout 0
scalar FogSequentialForward.fog[17].server[0] droppedJobsSLA 0
scalar FogSequentialForward.fog[17].server[0] droppedJobsTotal 0
scalar FogSequentialForward.fog[18].dispatcher localJobs 3637
scalar FogSequentialForward.fog[18].dispatcher internalJobs 3637
scalar FogSequentialForward.fog[18].dispatcher externalJobs 0
scalar FogSequentialForward.fog[18].dispatcher remoteJobs 0
scalar FogSequentialForward.fog[18].dispatcher probeQueries 0
scalar FogSequentialForward.fog[18].dispatcher probeAnswers 0
scalar FogSequentialForward.fog[18].dispatcher droppedJobsSLA 0
scalar FogSequentialForward.fog[18].dispatcher jobs_class_1 3637
scalar FogSequentialForward.fog[18].dispatcher localJobs_class_1 3637
scalar FogSequentialForward.fog[18].server[0] rho 0.5621999502182
scalar FogSequentialForward.fog[18].server[0] congestionRatio 0
scalar FogSequentialForward.fog[18].server[0] totalJobs 3637
scalar FogSequentialForward.fog[18].server[0] droppedJobsQueue 0
scalar FogSequentialForward.fog[18].server[0] droppedJobsTimout 0
scalar FogSequentialForward.fog[18].server[0] droppedJobsSLA 0
scalar FogSequentialForward.fog[18].server[0] droppedJobsTotal 0
scalar FogSequentialForward.fog[19].dispatcher localJobs 3659
scalar FogSequentialForward.fog[19].dispatcher internalJobs 3660
scalar FogSequentialForward.fog[19].dispatcher externalJobs 0
scalar FogSequentialForward.fog[19].dispatcher remoteJobs 1
scalar FogSequentialForward.fog[19].dispatcher probeQueries 0
scalar FogSequentialForward.fog[19].dispatcher probeAnswers 0
scalar FogSequentialForward.fog[19].dispatcher droppedJobsSLA 0
scalar FogSequentialForward.fog[19].dispatcher jobs_class_1 3660
scalar FogSequentialForward.fog[19].dispatcher remoteJobs_class_1 1
scalar FogSequentialForward.fog[19].dispatcher localJobs_class_1 3659
scalar FogSequentialForward.fog[19].server[0] rho 0.56560599803925
scalar FogSequentialForward.fog[19].server[0] congestionRatio 0
scalar FogSequentialForward.fog[19].server[0] totalJobs 3659
scalar FogSequentialForward.fog[19].server[0] droppedJobsQueue 0
scalar FogSequentialForward.fog[19].server[0] droppedJobsTimout 0
scalar FogSequentialForward.fog[19].server[0] droppedJobsSLA 0
scalar FogSequentialForward.fog[19].server[0] droppedJobsTotal 0
scalar FogSequentialForward.fog[20].dispatcher localJobs 3612
scalar FogSequentialForward.fog[20].dispatcher internalJobs 3611
scalar FogSequentialForward.fog[20].dispatcher externalJobs 1
scalar FogSequentialForward.fog[20].dispatcher remoteJobs 0
scalar FogSequentialForward.fog[20].dispatcher probeQueries 0
scalar FogSequentialForward.fog[20].dispatcher probeAnswers 0
scalar FogSequentialForward.fog[20].dispatcher droppedJobsSLA 0
scalar FogSequentialForward.fog[20].dispatcher jobs_class_1 3612
scalar FogSequentialForward.fog[20].dispatcher localJobs_class_1 3612
scalar FogSequentialForward.fog[20].server[0] rho 0.55867487192154
scalar FogSequentialForward.fog[20].server[0] congestionRatio 0
scalar FogSequentialForward.fog[20].server[0] totalJobs 3612
scalar FogSequentialForward.fog[20].server[0] droppedJobsQueue 0
scalar FogSequentialForward.fog[20].server[0] droppedJobsTimout 0
scalar FogSequentialForward.fog[20].server[0] droppedJobsSLA 0
scalar FogSequentialForward.fog[20].server[0] droppedJobsTotal 0
scalar FogSequentialForward.fog[21].dispatcher localJobs 3594
scalar FogSequentialForward.fog[21].dispatcher internalJobs 3594
scalar FogSequentialForward.fog[21].dispatcher externalJobs 1
scalar FogSequentialForward.fog[21].dispatcher remoteJobs 1
scalar FogSequentialForward.fog[21].dispatcher probeQueries 0
scalar FogSequentialForward.fog[21].dispatcher probeAnswers 0
scalar FogSequentialForward.fog[21].dispatcher droppedJobsSLA 0
scalar FogSequentialForward.fog[21].dispatcher jobs_class_1 3595
scalar FogSequentialForward.fog[21].dispatcher remoteJobs_class_1 1
scalar FogSequentialForward.fog[21].dispatcher localJobs_class_1 3594
scalar FogSequentialForward.fog[21].server[0] rho 0.55535131692886
scalar FogSequentialForward.fog[21].server[0] congestionRatio 0
scalar FogSequentialForward.fog[21].server[0] totalJobs 3594
scalar FogSequentialForward.fog[21].server[0] droppedJobsQueue 0
scalar FogSequentialForward.fog[21].server[0] droppedJobsTimout 0
scalar FogSequentialForward.fog[21].server[0] droppedJobsSLA 0
scalar FogSequentialForward.fog[21].server[0] droppedJobsTotal 0
scalar FogSequentialForward.fog[22].dispatcher localJobs 3601
scalar FogSequentialForward.fog[22].dispatcher internalJobs 3600
scalar FogSequentialForward.fog[22].dispatcher externalJobs 1
scalar FogSequentialForward.fog[22].dispatcher remoteJobs 0
scalar FogSequentialForward.fog[22].dispatcher probeQueries 0
scalar FogSequentialForward.fog[22].dispatcher probeAnswers 0
scalar FogSequentialForward.fog[22].dispatcher droppedJobsSLA 0
scalar FogSequentialForward.fog[22].dispatcher jobs_class_1 3601
scalar FogSequentialForward.fog[22].dispatcher localJobs_class_1 3601
scalar FogSequentialForward.fog[22].server[0] rho 0.5567364692688
scalar FogSequentialForward.fog[22].server[0] congestionRatio 0
scalar FogSequentialForward.fog[22].server[0] totalJobs 3601
scalar FogSequentialForward.fog[22].server[0] droppedJobsQueue 0
scalar FogSequentialForward.fog[22].server[0] droppedJobsTimout 0
scalar FogSequentialForward.fog[22].server[0] droppedJobsSLA 0
scalar FogSequentialForward.fog[22].server[0] droppedJobsTotal 0
scalar FogSequentialForward.fog[23].dispatcher localJobs 3595
scalar FogSequentialForward.fog[23].dispatcher internalJobs 3598
scalar FogSequentialForward.fog[23].dispatcher externalJobs 0
scalar FogSequentialForward.fog[23].dispatcher remoteJobs 3
scalar FogSequentialForward.fog[23].dispatcher probeQueries 0
scalar FogSequentialForward.fog[23].dispatcher probeAnswers 0
scalar FogSequentialForward.fog[23].dispatcher droppedJobsSLA 0
scalar FogSequentialForward.fog[23].dispatcher jobs_class_1 3598
scalar FogSequentialForward.fog[23].dispatcher remoteJobs_class_1 3
scalar FogSequentialForward.fog[23].dispatcher localJobs_class_1 3595
scalar FogSequentialForward.fog[23].server[0] rho 0.5556697845459
scalar FogSequentialForward.fog[23].server[0] congestionRatio 0
scalar FogSequentialForward.fog[23].server[0] totalJobs 3595
scalar FogSequentialForward.fog[23].server[0] droppedJobsQueue 0
scalar FogSequentialForward.fog[23].server[0] droppedJobsTimout 0
scalar FogSequentialForward.fog[23].server[0] droppedJobsSLA 0
scalar FogSequentialForward.fog[23].server[0] droppedJobsTotal 0
scalar FogSequentialForward.fog[24].dispatcher localJobs 3631
scalar FogSequentialForward.fog[24].dispatcher internalJobs 3631
scalar FogSequentialForward.fog[24].dispatcher externalJobs 0
scalar FogSequentialForward.fog[24].dispatcher remoteJobs 0
scalar FogSequentialForward.fog[24].dispatcher probeQueries 0
scalar FogSequentialForward.fog[24].dispatcher probeAnswers 0
scalar FogSequentialForward.fog[24].dispatcher droppedJobsSLA 0
scalar FogSequentialForward.fog[24].dispatcher jobs_class_1 3631
scalar FogSequentialForward.fog[24].dispatcher localJobs_class_1 3631
scalar FogSequentialForward.fog[24].server[0] rho 0.56145226955414
scalar FogSequentialForward.fog[24].server[0] congestionRatio 0
scalar FogSequentialForward.fog[24].server[0] totalJobs 3631
scalar FogSequentialForward.fog[24].server[0] droppedJobsQueue 0
scalar FogSequentialForward.fog[24].server[0] droppedJobsTimout 0
scalar FogSequentialForward.fog[24].server[0] droppedJobsSLA 0
scalar FogSequentialForward.fog[24].server[0] droppedJobsTotal 0
scalar FogSequentialForward.fog[25].dispatcher localJobs 3618
scalar FogSequentialForward.fog[25].dispatcher internalJobs 3616
scalar FogSequentialForward.fog[25].dispatcher externalJobs 2
scalar FogSequentialForward.fog[25].dispatcher remoteJobs 0
scalar FogSequentialForward.fog[25].dispatcher probeQueries 0
scalar FogSequentialForward.fog[25].dispatcher probeAnswers 0
scalar FogSequentialForward.fog[25].dispatcher droppedJobsSLA 0
scalar FogSequentialForward.fog[25].dispatcher jobs_class_1 3618
scalar FogSequentialForward.fog[25].dispatcher localJobs_class_1 3618
scalar FogSequentialForward.fog[25].server[0] rho 0.5595560669899
scalar FogSequentialForward.fog[25].server[0] congestionRatio 0
scalar FogSequentialForward.fog[25].server[0] totalJobs 3618
scalar FogSequentialForward.fog[25].server[0] droppedJobsQueue 0
scalar FogSequentialForward.fog[25].server[0] droppedJobsTimout 0
scalar FogSequentialForward.fog[25].server[0] droppedJobsSLA 0
scalar FogSequentialForward.fog[25].server[0] droppedJobsTotal 0
scalar FogSequentialForward.fog[26].dispatcher localJobs 3582
scalar FogSequentialForward.fog[26].dispatcher internalJobs 3582
scalar FogSequentialForward.fog[26].dispatcher externalJobs 0
scalar FogSequentialForward.fog[26].dispatcher remoteJobs 0
scalar FogSequentialForward.fog[26].dispatcher probeQueries 0
scalar FogSequentialForward.fog[26].dispatcher probeAnswers 0
scalar FogSequentialForward.fog[26].dispatcher droppedJobsSLA 0
scalar FogSequentialForward.fog[26].dispatcher jobs_class_1 3582
scalar FogSequentialForward.fog[26].dispatcher localJobs_class_1 3582
scalar FogSequentialForward.fog[26].server[0] rho 0.55357849597931
scalar FogSequentialForward.fog[26].server[0] congestionRatio 0
scalar FogSequentialForward.fog[26].server[0] totalJobs 3582
scalar FogSequentialForward.fog[26].server[0] droppedJobsQueue 0
scalar FogSequentialForward.fog[26].server[0] droppedJobsTimout 0
scalar FogSequentialForward.fog[26].server[0] droppedJobsSLA 0
scalar FogSequentialForward.fog[26].server[0] droppedJobsTotal 0
scalar FogSequentialForward.fog[27].dispatcher localJobs 3604
scalar FogSequentialForward.fog[27].dispatcher internalJobs 3605
scalar FogSequentialForward.fog[27].dispatcher externalJobs 1
scalar FogSequentialForward.fog[27].dispatcher remoteJobs 2
scalar FogSequentialForward.fog[27].dispatcher probeQueries 0
scalar FogSequentialForward.fog[27].dispatcher probeAnswers 0
scalar FogSequentialForward.fog[27].dispatcher droppedJobsSLA 0
scalar FogSequentialForward.fog[27].dispatcher jobs_class_1 3606
scalar FogSequentialForward.fog[27].dispatcher remoteJobs_class_1 2
scalar FogSequentialForward.fog[27].dispatcher localJobs_class_1 3604
scalar FogSequentialForward.fog[27].server[0] rho 0.55720627307892
scalar FogSequentialForward.fog[27].server[0] congestionRatio 0
scalar FogSequentialForward.fog[27].server[0] totalJobs 3604
scalar FogSequentialForward.fog[27].server[0] droppedJobsQueue 0
scalar FogSequentialForward.fog[27].server[0] droppedJobsTimout 0
scalar FogSequentialForward.fog[27].server[0] droppedJobsSLA 0
scalar FogSequentialForward.fog[27].server[0] droppedJobsTotal 0
scalar FogSequentialForward.fog[28].dispatcher localJobs 3585
scalar FogSequentialForward.fog[28].dispatcher internalJobs 3588
scalar FogSequentialForward.fog[28].dispatcher externalJobs 0
scalar FogSequentialForward.fog[28].dispatcher remoteJobs 3
scalar FogSequentialForward.fog[28].dispatcher probeQueries 0
scalar FogSequentialForward.fog[28].dispatcher probeAnswers 0
scalar FogSequentialForward.fog[28].dispatcher droppedJobsSLA 0
scalar FogSequentialForward.fog[28].dispatcher jobs_class_1 3588
scalar FogSequentialForward.fog[28].dispatcher remoteJobs_class_1 3
scalar FogSequentialForward.fog[28].dispatcher localJobs_class_1 3585
scalar FogSequentialForward.fog[28].server[0] rho 0.55398774147034
scalar FogSequentialForward.fog[28].server[0] congestionRatio 0
scalar FogSequentialForward.fog[28].server[0] totalJobs 3585
scalar FogSequentialForward.fog[28].server[0] droppedJobsQueue 0
scalar FogSequentialForward.fog[28].server[0] droppedJobsTimout 0
scalar FogSequentialForward.fog[28].server[0] droppedJobsSLA 0
scalar FogSequentialForward.fog[28].server[0] droppedJobsTotal 0
scalar FogSequentialForward.fog[29].dispatcher localJobs 3688
scalar FogSequentialForward.fog[29].dispatcher internalJobs 3690
scalar FogSequentialForward.fog[29].dispatcher externalJobs 0
scalar FogSequentialForward.fog[29].dispatcher remoteJobs 2
scalar FogSequentialForward.fog[29].dispatcher probeQueries 0
scalar FogSequentialForward.fog[29].dispatcher probeAnswers 0
scalar FogSequentialForward.fog[29].dispatcher droppedJobsSLA 0
scalar FogSequentialForward.fog[29].dispatcher jobs_class_1 3690
scalar FogSequentialForward.fog[29].dispatcher remoteJobs_class_1 2
scalar FogSequentialForward.fog[29].dispatcher localJobs_class_1 3688
scalar FogSequentialForward.fog[29].server[0] rho 0.57019054889679
scalar FogSequentialForward.fog[29].server[0] congestionRatio 0
scalar FogSequentialForward.fog[29].server[0] totalJobs 3688
scalar FogSequentialForward.fog[29].server[0] droppedJobsQueue 0
scalar FogSequentialForward.fog[29].server[0] droppedJobsTimout 0
scalar FogSequentialForward.fog[29].server[0] droppedJobsSLA 0
scalar FogSequentialForward.fog[29].server[0] droppedJobsTotal 0
scalar FogSequentialForward.fog[30].dispatcher localJobs 3597
scalar FogSequentialForward.fog[30].dispatcher internalJobs 3597
scalar FogSequentialForward.fog[30].dispatcher externalJobs 0
scalar FogSequentialForward.fog[30].dispatcher remoteJobs 0
scalar FogSequentialForward.fog[30].dispatcher probeQueries 0
scalar FogSequentialForward.fog[30].dispatcher probeAnswers 0
scalar FogSequentialForward.fog[30].dispatcher droppedJobsSLA 0
scalar FogSequentialForward.fog[30].dispatcher jobs_class_1 3597
scalar FogSequentialForward.fog[30].dispatcher localJobs_class_1 3597
scalar FogSequentialForward.fog[30].server[0] rho 0.55623894929886
scalar FogSequentialForward.fog[30].server[0] congestionRatio 0
scalar FogSequentialForward.fog[30].server[0] totalJobs 3597
scalar FogSequentialForward.fog[30].server[0] droppedJobsQueue 0
scalar FogSequentialForward.fog[30].server[0] droppedJobsTimout 0
scalar FogSequentialForward.fog[30].server[0] droppedJobsSLA 0
scalar FogSequentialForward.fog[30].server[0] droppedJobsTotal 0
scalar FogSequentialForward.fog[31].dispatcher localJobs 3587
scalar FogSequentialForward.fog[31].dispatcher internalJobs 3588
scalar FogSequentialForward.fog[31].dispatcher externalJobs 1
scalar FogSequentialForward.fog[31].dispatcher remoteJobs 2
scalar FogSequentialForward.fog[31].dispatcher probeQueries 0
scalar FogSequentialForward.fog[31].dispatcher probeAnswers 0
scalar FogSequentialForward.fog[31].dispatcher droppedJobsSLA 0
scalar FogSequentialForward.fog[31].dispatcher jobs_class_1 3589
scalar FogSequentialForward.fog[31].dispatcher remoteJobs_class_1 2
scalar FogSequentialForward.fog[31].dispatcher localJobs_class_1 3587
scalar FogSequentialForward.fog[31].server[0] rho 0.55459612607956
scalar FogSequentialForward.fog[31].server[0] congestionRatio 0
scalar FogSequentialForward.fog[31].server[0] totalJobs 3587
scalar FogSequentialForward.fog[31].server[0] droppedJobsQueue 0
scalar FogSequentialForward.fog[31].server[0] droppedJobsTimout 0
scalar FogSequentialForward.fog[31].server[0] droppedJobsSLA 0
scalar FogSequentialForward.fog[31].server[0] droppedJobsTotal 0
scalar FogSequentialForward.fog[32].dispatcher localJobs 3650
scalar FogSequentialForward.fog[32].dispatcher internalJobs 3650
scalar FogSequentialForward.fog[32].dispatcher externalJobs 0
scalar FogSequentialForward.fog[32].dispatcher remoteJobs 0
scalar FogSequentialForward.fog[32].dispatcher probeQueries 0
scalar FogSequentialForward.fog[32].dispatcher probeAnswers 0
scalar FogSequentialForward.fog[32].dispatcher droppedJobsSLA 0
scalar FogSequentialForward.fog[32].dispatcher jobs_class_1 3650
scalar FogSequentialForward.fog[32].dispatcher localJobs_class_1 3650
scalar FogSequentialForward.fog[32].server[0] rho 0.56427484750748
scalar FogSequentialForward.fog[32].server[0] congestionRatio 0
scalar FogSequentialForward.fog[32].server[0] totalJobs 3650
scalar FogSequentialForward.fog[32].server[0] droppedJobsQueue 0
scalar FogSequentialForward.fog[32].server[0] droppedJobsTimout 0
scalar FogSequentialForward.fog[32].server[0] droppedJobsSLA 0
scalar FogSequentialForward.fog[32].server[0] droppedJobsTotal 0
scalar FogSequentialForward.fog[33].dispatcher localJobs 3586
scalar FogSequentialForward.fog[33].dispatcher internalJobs 3585
scalar FogSequentialForward.fog[33].dispatcher externalJobs 1
scalar FogSequentialForward.fog[33].dispatcher remoteJobs 0
scalar FogSequentialForward.fog[33].dispatcher probeQueries 0
scalar FogSequentialForward.fog[33].dispatcher probeAnswers 0
scalar FogSequentialForward.fog[33].dispatcher droppedJobsSLA 0
scalar FogSequentialForward.fog[33].dispatcher jobs_class_1 3586
scalar FogSequentialForward.fog[33].dispatcher localJobs_class_1 3586
scalar FogSequentialForward.fog[33].server[0] rho 0.55448573827744
scalar FogSequentialForward.fog[33].server[0] congestionRatio 0
scalar FogSequentialForward.fog[33].server[0] totalJobs 3586
scalar FogSequentialForward.fog[33].server[0] droppedJobsQueue 0
scalar FogSequentialForward.fog[33].server[0] droppedJobsTimout 0
scalar FogSequentialForward.fog[33].server[0] droppedJobsSLA 0
scalar FogSequentialForward.fog[33].server[0] droppedJobsTotal 0
scalar FogSequentialForward.fog[34].dispatcher localJobs 3578
scalar FogSequentialForward.fog[34].dispatcher internalJobs 3578
scalar FogSequentialForward.fog[34].dispatcher externalJobs 1
scalar FogSequentialForward.fog[34].dispatcher remoteJobs 1
scalar FogSequentialForward.fog[34].dispatcher probeQueries 0
scalar FogSequentialForward.fog[34].dispatcher probeAnswers 0
scalar FogSequentialForward.fog[34].dispatcher droppedJobsSLA 0
scalar FogSequentialForward.fog[34].dispatcher jobs_class_1 3579
scalar FogSequentialForward.fog[34].dispatcher remoteJobs_class_1 1
scalar FogSequentialForward.fog[34].dispatcher localJobs_class_1 3578
scalar FogSequentialForward.fog[34].server[0] rho 0.55207985639572
scalar FogSequentialForward.fog[34].server[0] congestionRatio 0
scalar FogSequentialForward.fog[34].server[0] totalJobs 3578
scalar FogSequentialForward.fog[34].server[0] droppedJobsQueue 0
scalar FogSequentialForward.fog[34].server[0] droppedJobsTimout 0
scalar FogSequentialForward.fog[34].server[0] droppedJobsSLA 0
scalar FogSequentialForward.fog[34].server[0] droppedJobsTotal 0
scalar FogSequentialForward.fog[35].dispatcher localJobs 3471
scalar FogSequentialForward.fog[35].dispatcher internalJobs 3470
scalar FogSequentialForward.fog[35].dispatcher externalJobs 1
scalar FogSequentialForward.fog[35].dispatcher remoteJobs 0
scalar FogSequentialForward.fog[35].dispatcher probeQueries 0
scalar FogSequentialForward.fog[35].dispatcher probeAnswers 0
scalar FogSequentialForward.fog[35].dispatcher droppedJobsSLA 0
scalar FogSequentialForward.fog[35].dispatcher jobs_class_1 3471
scalar FogSequentialForward.fog[35].dispatcher localJobs_class_1 3471
scalar FogSequentialForward.fog[35].server[0] rho 0.53634828329086
scalar FogSequentialForward.fog[35].server[0] congestionRatio 0
scalar FogSequentialForward.fog[35].server[0] totalJobs 3471
scalar FogSequentialForward.fog[35].server[0] droppedJobsQueue 0
scalar FogSequentialForward.fog[35].server[0] droppedJobsTimout 0
scalar FogSequentialForward.fog[35].server[0] droppedJobsSLA 0
scalar FogSequentialForward.fog[35].server[0] droppedJobsTotal 0
scalar FogSequentialForward.fog[36].dispatcher localJobs 3644
scalar FogSequentialForward.fog[36].dispatcher internalJobs 3640
scalar FogSequentialForward.fog[36].dispatcher externalJobs 4
scalar FogSequentialForward.fog[36].dispatcher remoteJobs 0
scalar FogSequentialForward.fog[36].dispatcher probeQueries 0
scalar FogSequentialForward.fog[36].dispatcher probeAnswers 0
scalar FogSequentialForward.fog[36].dispatcher droppedJobsSLA 0
scalar FogSequentialForward.fog[36].dispatcher jobs_class_1 3644
scalar FogSequentialForward.fog[36].dispatcher localJobs_class_1 3644
scalar FogSequentialForward.fog[36].server[0] rho 0.56338107585907
scalar FogSequentialForward.fog[36].server[0] congestionRatio 0
scalar FogSequentialForward.fog[36].server[0] totalJobs 3644
scalar FogSequentialForward.fog[36].server[0] droppedJobsQueue 0
scalar FogSequentialForward.fog[36].server[0] droppedJobsTimout 0
scalar FogSequentialForward.fog[36].server[0] droppedJobsSLA 0
scalar FogSequentialForward.fog[36].server[0] droppedJobsTotal 0
scalar FogSequentialForward.fog[37].dispatcher localJobs 3625
scalar FogSequentialForward.fog[37].dispatcher internalJobs 3623
scalar FogSequentialForward.fog[37].dispatcher externalJobs 2
scalar FogSequentialForward.fog[37].dispatcher remoteJobs 0
scalar FogSequentialForward.fog[37].dispatcher probeQueries 0
scalar FogSequentialForward.fog[37].dispatcher probeAnswers 0
scalar FogSequentialForward.fog[37].dispatcher droppedJobsSLA 0
scalar FogSequentialForward.fog[37].dispatcher jobs_class_1 3625
scalar FogSequentialForward.fog[37].dispatcher localJobs_class_1 3625
scalar FogSequentialForward.fog[37].server[0] rho 0.56039297580719
scalar FogSequentialForward.fog[37].server[0] congestionRatio 0
scalar FogSequentialForward.fog[37].server[0] totalJobs 3625
scalar FogSequentialForward.fog[37].server[0] droppedJobsQueue 0
scalar FogSequentialForward.fog[37].server[0] droppedJobsTimout 0
scalar FogSequentialForward.fog[37].server[0] droppedJobsSLA 0
scalar FogSequentialForward.fog[37].server[0] droppedJobsTotal 0
scalar FogSequentialForward.fog[38].dispatcher localJobs 3633
scalar FogSequentialForward.fog[38].dispatcher internalJobs 3633
scalar FogSequentialForward.fog[38].dispatcher externalJobs 0
scalar FogSequentialForward.fog[38].dispatcher remoteJobs 0
scalar FogSequentialForward.fog[38].dispatcher probeQueries 0
scalar FogSequentialForward.fog[38].dispatcher probeAnswers 0
scalar FogSequentialForward.fog[38].dispatcher droppedJobsSLA 0
scalar FogSequentialForward.fog[38].dispatcher jobs_class_1 3633
scalar FogSequentialForward.fog[38].dispatcher localJobs_class_1 3633
scalar FogSequentialForward.fog[38].server[0] rho 0.56161683797836
scalar FogSequentialForward.fog[38].server[0] congestionRatio 0
scalar FogSequentialForward.fog[38].server[0] totalJobs 3633
scalar FogSequentialForward.fog[38].server[0] droppedJobsQueue 0
scalar FogSequentialForward.fog[38].server[0] droppedJobsTimout 0
scalar FogSequentialForward.fog[38].server[0] droppedJobsSLA 0
scalar FogSequentialForward.fog[38].server[0] droppedJobsTotal 0
scalar FogSequentialForward.fog[39].dispatcher localJobs 3556
scalar FogSequentialForward.fog[39].dispatcher internalJobs 3555
scalar FogSequentialForward.fog[39].dispatcher externalJobs 1
scalar FogSequentialForward.fog[39].dispatcher remoteJobs 0
scalar FogSequentialForward.fog[39].dispatcher probeQueries 0
scalar FogSequentialForward.fog[39].dispatcher probeAnswers 0
scalar FogSequentialForward.fog[39].dispatcher droppedJobsSLA 0
scalar FogSequentialForward.fog[39].dispatcher jobs_class_1 3556
scalar FogSequentialForward.fog[39].dispatcher localJobs_class_1 3556
scalar FogSequentialForward.fog[39].server[0] rho 0.54929584264755
scalar FogSequentialForward.fog[39].server[0] congestionRatio 0
scalar FogSequentialForward.fog[39].server[0] totalJobs 3556
scalar FogSequentialForward.fog[39].server[0] droppedJobsQueue 0
scalar FogSequentialForward.fog[39].server[0] droppedJobsTimout 0
scalar FogSequentialForward.fog[39].server[0] droppedJobsSLA 0
scalar FogSequentialForward.fog[39].server[0] droppedJobsTotal 0
scalar FogSequentialForward.fog[40].dispatcher localJobs 3590
scalar FogSequentialForward.fog[40].dispatcher internalJobs 3590
scalar FogSequentialForward.fog[40].dispatcher externalJobs 0
scalar FogSequentialForward.fog[40].dispatcher remoteJobs 0
scalar FogSequentialForward.fog[40].dispatcher probeQueries 0
scalar FogSequentialForward.fog[40].dispatcher probeAnswers 0
scalar FogSequentialForward.fog[40].dispatcher droppedJobsSLA 0
scalar FogSequentialForward.fog[40].dispatcher jobs_class_1 3590
scalar FogSequentialForward.fog[40].dispatcher localJobs_class_1 3590
scalar FogSequentialForward.fog[40].server[0] rho 0.55518716573715
scalar FogSequentialForward.fog[40].server[0] congestionRatio 0
scalar FogSequentialForward.fog[40].server[0] totalJobs 3590
scalar FogSequentialForward.fog[40].server[0] droppedJobsQueue 0
scalar FogSequentialForward.fog[40].server[0] droppedJobsTimout 0
scalar FogSequentialForward.fog[40].server[0] droppedJobsSLA 0
scalar FogSequentialForward.fog[40].server[0] droppedJobsTotal 0
scalar FogSequentialForward.fog[41].dispatcher localJobs 3624
scalar FogSequentialForward.fog[41].dispatcher internalJobs 3622
scalar FogSequentialForward.fog[41].dispatcher externalJobs 2
scalar FogSequentialForward.fog[41].dispatcher remoteJobs 0
scalar FogSequentialForward.fog[41].dispatcher probeQueries 0
scalar FogSequentialForward.fog[41].dispatcher probeAnswers 0
scalar FogSequentialForward.fog[41].dispatcher droppedJobsSLA 0
scalar FogSequentialForward.fog[41].dispatcher jobs_class_1 3624
scalar FogSequentialForward.fog[41].dispatcher localJobs_class_1 3624
scalar FogSequentialForward.fog[41].server[0] rho 0.56055951118469
scalar FogSequentialForward.fog[41].server[0] congestionRatio 0
scalar FogSequentialForward.fog[41].server[0] totalJobs 3624
scalar FogSequentialForward.fog[41].server[0] droppedJobsQueue 0
scalar FogSequentialForward.fog[41].server[0] droppedJobsTimout 0
scalar FogSequentialForward.fog[41].server[0] droppedJobsSLA 0
scalar FogSequentialForward.fog[41].server[0] droppedJobsTotal 0
scalar FogSequentialForward.fog[42].dispatcher localJobs 3577
scalar FogSequentialForward.fog[42].dispatcher internalJobs 3576
scalar FogSequentialForward.fog[42].dispatcher externalJobs 1
scalar FogSequentialForward.fog[42].dispatcher remoteJobs 0
scalar FogSequentialForward.fog[42].dispatcher probeQueries 0
scalar FogSequentialForward.fog[42].dispatcher probeAnswers 0
scalar FogSequentialForward.fog[42].dispatcher droppedJobsSLA 0
scalar FogSequentialForward.fog[42].dispatcher jobs_class_1 3577
scalar FogSequentialForward.fog[42].dispatcher localJobs_class_1 3577
scalar FogSequentialForward.fog[42].server[0] rho 0.55359971523285
scalar FogSequentialForward.fog[42].server[0] congestionRatio 0
scalar FogSequentialForward.fog[42].server[0] totalJobs 3577
scalar FogSequentialForward.fog[42].server[0] droppedJobsQueue 0
scalar FogSequentialForward.fog[42].server[0] droppedJobsTimout 0
scalar FogSequentialForward.fog[42].server[0] droppedJobsSLA 0
scalar FogSequentialForward.fog[42].server[0] droppedJobsTotal 0
scalar FogSequentialForward.fog[43].dispatcher localJobs 3608
scalar FogSequentialForward.fog[43].dispatcher internalJobs 3609
scalar FogSequentialForward.fog[43].dispatcher externalJobs 1
scalar FogSequentialForward.fog[43].dispatcher remoteJobs 2
scalar FogSequentialForward.fog[43].dispatcher probeQueries 0
scalar FogSequentialForward.fog[43].dispatcher probeAnswers 0
scalar FogSequentialForward.fog[43].dispatcher droppedJobsSLA 0
scalar FogSequentialForward.fog[43].dispatcher jobs_class_1 3610
scalar FogSequentialForward.fog[43].dispatcher remoteJobs_class_1 2
scalar FogSequentialForward.fog[43].dispatcher localJobs_class_1 3608
scalar FogSequentialForward.fog[43].server[0] rho 0.55764901638031
scalar FogSequentialForward.fog[43].server[0] congestionRatio 0
scalar FogSequentialForward.fog[43].server[0] totalJobs 3608
scalar FogSequentialForward.fog[43].server[0] droppedJobsQueue 0
scalar FogSequentialForward.fog[43].server[0] droppedJobsTimout 0
scalar FogSequentialForward.fog[43].server[0] droppedJobsSLA 0
scalar FogSequentialForward.fog[43].server[0] droppedJobsTotal 0
scalar FogSequentialForward.fog[44].dispatcher localJobs 3564
scalar FogSequentialForward.fog[44].dispatcher internalJobs 3565
scalar FogSequentialForward.fog[44].dispatcher externalJobs 0
scalar FogSequentialForward.fog[44].dispatcher remoteJobs 1
scalar FogSequentialForward.fog[44].dispatcher probeQueries 0
scalar FogSequentialForward.fog[44].dispatcher probeAnswers 0
scalar FogSequentialForward.fog[44].dispatcher droppedJobsSLA 0
scalar FogSequentialForward.fog[44].dispatcher jobs_class_1 3565
scalar FogSequentialForward.fog[44].dispatcher remoteJobs_class_1 1
scalar FogSequentialForward.fog[44].dispatcher localJobs_class_1 3564
scalar FogSequentialForward.fog[44].server[0] rho 0.55056762695312
scalar FogSequentialForward.fog[44].server[0] congestionRatio 0
scalar FogSequentialForward.fog[44].server[0] totalJobs 3564
scalar FogSequentialForward.fog[44].server[0] droppedJobsQueue 0
scalar FogSequentialForward.fog[44].server[0] droppedJobsTimout 0
scalar FogSequentialForward.fog[44].server[0] droppedJobsSLA 0
scalar FogSequentialForward.fog[44].server[0] droppedJobsTotal 0
scalar FogSequentialForward.fog[45].dispatcher localJobs 3659
scalar FogSequentialForward.fog[45].dispatcher internalJobs 3660
scalar FogSequentialForward.fog[45].dispatcher externalJobs 1
scalar FogSequentialForward.fog[45].dispatcher remoteJobs 2
scalar FogSequentialForward.fog[45].dispatcher probeQueries 0
scalar FogSequentialForward.fog[45].dispatcher probeAnswers 0
scalar FogSequentialForward.fog[45].dispatcher droppedJobsSLA 0
scalar FogSequentialForward.fog[45].dispatcher jobs_class_1 3661
scalar FogSequentialForward.fog[45].dispatcher remoteJobs_class_1 2
scalar FogSequentialForward.fog[45].dispatcher localJobs_class_1 3659
scalar FogSequentialForward.fog[45].server[0] rho 0.56602448225021
scalar FogSequentialForward.fog[45].server[0] congestionRatio 0
scalar FogSequentialForward.fog[45].server[0] totalJobs 3659
scalar FogSequentialForward.fog[45].server[0] droppedJobsQueue 0
scalar FogSequentialForward.fog[45].server[0] droppedJobsTimout 0
scalar FogSequentialForward.fog[45].server[0] droppedJobsSLA 0
scalar FogSequentialForward.fog[45].server[0] droppedJobsTotal 0
scalar FogSequentialForward.fog[46].dispatcher localJobs 3562
scalar FogSequentialForward.fog[46].dispatcher internalJobs 3560
scalar FogSequentialForward.fog[46].dispatcher externalJobs 2
scalar FogSequentialForward.fog[46].dispatcher remoteJobs 0
scalar FogSequentialForward.fog[46].dispatcher probeQueries 0
scalar FogSequentialForward.fog[46].dispatcher probeAnswers 0
scalar FogSequentialForward.fog[46].dispatcher droppedJobsSLA 0
scalar FogSequentialForward.fog[46].dispatcher jobs_class_1 3562
scalar FogSequentialForward.fog[46].dispatcher localJobs_class_1 3562
scalar FogSequentialForward.fog[46].server[0] rho 0.55041754245758
scalar FogSequentialForward.fog[46].server[0] congestionRatio 0
scalar FogSequentialForward.fog[46].server[0] totalJobs 3562
scalar FogSequentialForward.fog[46].server[0] droppedJobsQueue 0
scalar FogSequentialForward.fog[46].server[0] droppedJobsTimout 0
scalar FogSequentialForward.fog[46].server[0] droppedJobsSLA 0
scalar FogSequentialForward.fog[46].server[0] droppedJobsTotal 0
scalar FogSequentialForward.fog[47].dispatcher localJobs 3532
scalar FogSequentialForward.fog[47].dispatcher internalJobs 3532
scalar FogSequentialForward.fog[47].dispatcher externalJobs 1
scalar FogSequentialForward.fog[47].dispatcher remoteJobs 1
scalar FogSequentialForward.fog[47].dispatcher probeQueries 0
scalar FogSequentialForward.fog[47].dispatcher probeAnswers 0
scalar FogSequentialForward.fog[47].dispatcher droppedJobsSLA 0
scalar FogSequentialForward.fog[47].dispatcher jobs_class_1 3533
scalar FogSequentialForward.fog[47].dispatcher remoteJobs_class_1 1
scalar FogSequentialForward.fog[47].dispatcher localJobs_class_1 3532
scalar FogSequentialForward.fog[47].server[0] rho 0.54617792367935
scalar FogSequentialForward.fog[47].server[0] congestionRatio 0
scalar FogSequentialForward.fog[47].server[0] totalJobs 3532
scalar FogSequentialForward.fog[47].server[0] droppedJobsQueue 0
scalar FogSequentialForward.fog[47].server[0] droppedJobsTimout 0
scalar FogSequentialForward.fog[47].server[0] droppedJobsSLA 0
scalar FogSequentialForward.fog[47].server[0] droppedJobsTotal 0
scalar FogSequentialForward.fog[48].dispatcher localJobs 3652
scalar FogSequentialForward.fog[48].dispatcher internalJobs 3652
scalar FogSequentialForward.fog[48].dispatcher externalJobs 0
scalar FogSequentialForward.fog[48].dispatcher remoteJobs 0
scalar FogSequentialForward.fog[48].dispatcher probeQueries 0
scalar FogSequentialForward.fog[48].dispatcher probeAnswers 0
scalar FogSequentialForward.fog[48].dispatcher droppedJobsSLA 0
scalar FogSequentialForward.fog[48].dispatcher jobs_class_1 3652
scalar FogSequentialForward.fog[48].dispatcher localJobs_class_1 3652
scalar FogSequentialForward.fog[48].server[0] rho 0.56468844413757
scalar FogSequentialForward.fog[48].server[0] congestionRatio 0
scalar FogSequentialForward.fog[48].server[0] totalJobs 3652
scalar FogSequentialForward.fog[48].server[0] droppedJobsQueue 0
scalar FogSequentialForward.fog[48].server[0] droppedJobsTimout 0
scalar FogSequentialForward.fog[48].server[0] droppedJobsSLA 0
scalar FogSequentialForward.fog[48].server[0] droppedJobsTotal 0
scalar FogSequentialForward.fog[49].dispatcher localJobs 3623
scalar FogSequentialForward.fog[49].dispatcher internalJobs 3623
scalar FogSequentialForward.fog[49].dispatcher externalJobs 0
scalar FogSequentialForward.fog[49].dispatcher remoteJobs 0
scalar FogSequentialForward.fog[49].dispatcher probeQueries 0
scalar FogSequentialForward.fog[49].dispatcher probeAnswers 0
scalar FogSequentialForward.fog[49].dispatcher droppedJobsSLA 0
scalar FogSequentialForward.fog[49].dispatcher jobs_class_1 3623
scalar FogSequentialForward.fog[49].dispatcher localJobs_class_1 3623
scalar FogSequentialForward.fog[49].server[0] rho 0.56041216850281
scalar FogSequentialForward.fog[49].server[0] congestionRatio 0
scalar FogSequentialForward.fog[49].server[0] totalJobs 3623
scalar FogSequentialForward.fog[49].server[0] droppedJobsQueue 0
scalar FogSequentialForward.fog[49].server[0] droppedJobsTimout 0
scalar FogSequentialForward.fog[49].server[0] droppedJobsSLA 0
scalar FogSequentialForward.fog[49].server[0] droppedJobsTotal 0
scalar FogSequentialForward.fog[50].dispatcher localJobs 3594
scalar FogSequentialForward.fog[50].dispatcher internalJobs 3595
scalar FogSequentialForward.fog[50].dispatcher externalJobs 0
scalar FogSequentialForward.fog[50].dispatcher remoteJobs 1
scalar FogSequentialForward.fog[50].dispatcher probeQueries 0
scalar FogSequentialForward.fog[50].dispatcher probeAnswers 0
scalar FogSequentialForward.fog[50].dispatcher droppedJobsSLA 0
scalar FogSequentialForward.fog[50].dispatcher jobs_class_1 3595
scalar FogSequentialForward.fog[50].dispatcher remoteJobs_class_1 1
scalar FogSequentialForward.fog[50].dispatcher localJobs_class_1 3594
scalar FogSequentialForward.fog[50].server[0] rho 0.55567276477814
scalar FogSequentialForward.fog[50].server[0] congestionRatio 0
scalar FogSequentialForward.fog[50].server[0] totalJobs 3594
scalar FogSequentialForward.fog[50].server[0] droppedJobsQueue 0
scalar FogSequentialForward.fog[50].server[0] droppedJobsTimout 0
scalar FogSequentialForward.fog[50].server[0] droppedJobsSLA 0
scalar FogSequentialForward.fog[50].server[0] droppedJobsTotal 0
scalar FogSequentialForward.fog[51].dispatcher localJobs 3705
scalar FogSequentialForward.fog[51].dispatcher internalJobs 3704
scalar FogSequentialForward.fog[51].dispatcher externalJobs 1
scalar FogSequentialForward.fog[51].dispatcher remoteJobs 0
scalar FogSequentialForward.fog[51].dispatcher probeQueries 0
scalar FogSequentialForward.fog[51].dispatcher probeAnswers 0
scalar FogSequentialForward.fog[51].dispatcher droppedJobsSLA 0
scalar FogSequentialForward.fog[51].dispatcher jobs_class_1 3705
scalar FogSequentialForward.fog[51].dispatcher localJobs_class_1 3705
scalar FogSequentialForward.fog[51].server[0] rho 0.573186814785
scalar FogSequentialForward.fog[51].server[0] congestionRatio 0
scalar FogSequentialForward.fog[51].server[0] totalJobs 3705
scalar FogSequentialForward.fog[51].server[0] droppedJobsQueue 0
scalar FogSequentialForward.fog[51].server[0] droppedJobsTimout 0
scalar FogSequentialForward.fog[51].server[0] droppedJobsSLA 0
scalar FogSequentialForward.fog[51].server[0] droppedJobsTotal 0
scalar FogSequentialForward.fog[52].dispatcher localJobs 3682
scalar FogSequentialForward.fog[52].dispatcher internalJobs 3683
scalar FogSequentialForward.fog[52].dispatcher externalJobs 0
scalar FogSequentialForward.fog[52].dispatcher remoteJobs 1
scalar FogSequentialForward.fog[52].dispatcher probeQueries 0
scalar FogSequentialForward.fog[52].dispatcher probeAnswers 0
scalar FogSequentialForward.fog[52].dispatcher droppedJobsSLA 0
scalar FogSequentialForward.fog[52].dispatcher jobs_class_1 3683
scalar FogSequentialForward.fog[52].dispatcher remoteJobs_class_1 1
scalar FogSequentialForward.fog[52].dispatcher localJobs_class_1 3682
scalar FogSequentialForward.fog[52].server[0] rho 0.56896215677261
scalar FogSequentialForward.fog[52].server[0] congestionRatio 0
scalar FogSequentialForward.fog[52].server[0] totalJobs 3682
scalar FogSequentialForward.fog[52].server[0] droppedJobsQueue 0
scalar FogSequentialForward.fog[52].server[0] droppedJobsTimout 0
scalar FogSequentialForward.fog[52].server[0] droppedJobsSLA 0
scalar FogSequentialForward.fog[52].server[0] droppedJobsTotal 0
scalar FogSequentialForward.fog[53].dispatcher localJobs 3528
scalar FogSequentialForward.fog[53].dispatcher internalJobs 3529
scalar FogSequentialForward.fog[53].dispatcher externalJobs 0
scalar FogSequentialForward.fog[53].dispatcher remoteJobs 1
scalar FogSequentialForward.fog[53].dispatcher probeQueries 0
scalar FogSequentialForward.fog[53].dispatcher probeAnswers 0
scalar FogSequentialForward.fog[53].dispatcher droppedJobsSLA 0
scalar FogSequentialForward.fog[53].dispatcher jobs_class_1 3529
scalar FogSequentialForward.fog[53].dispatcher remoteJobs_class_1 1
scalar FogSequentialForward.fog[53].dispatcher localJobs_class_1 3528
scalar FogSequentialForward.fog[53].server[0] rho 0.54515099525452
scalar FogSequentialForward.fog[53].server[0] congestionRatio 0
scalar FogSequentialForward.fog[53].server[0] totalJobs 3528
scalar FogSequentialForward.fog[53].server[0] droppedJobsQueue 0
scalar FogSequentialForward.fog[53].server[0] droppedJobsTimout 0
scalar FogSequentialForward.fog[53].server[0] droppedJobsSLA 0
scalar FogSequentialForward.fog[53].server[0] droppedJobsTotal 0
scalar FogSequentialForward.fog[54].dispatcher localJobs 3576
scalar FogSequentialForward.fog[54].dispatcher internalJobs 3573
scalar FogSequentialForward.fog[54].dispatcher externalJobs 4
scalar FogSequentialForward.fog[54].dispatcher remoteJobs 1
scalar FogSequentialForward.fog[54].dispatcher probeQueries 0
scalar FogSequentialForward.fog[54].dispatcher probeAnswers 0
scalar FogSequentialForward.fog[54].dispatcher droppedJobsSLA 0
scalar FogSequentialForward.fog[54].dispatcher jobs_class_1 3577
scalar FogSequentialForward.fog[54].dispatcher remoteJobs_class_1 1
scalar FogSequentialForward.fog[54].dispatcher localJobs_class_1 3576
scalar FogSequentialForward.fog[54].server[0] rho 0.55305069684982
scalar FogSequentialForward.fog[54].server[0] congestionRatio 0
scalar FogSequentialForward.fog[54].server[0] totalJobs 3576
scalar FogSequentialForward.fog[54].server[0] droppedJobsQueue 0
scalar FogSequentialForward.fog[54].server[0] droppedJobsTimout 0
scalar FogSequentialForward.fog[54].server[0] droppedJobsSLA 0
scalar FogSequentialForward.fog[54].server[0] droppedJobsTotal 0
scalar FogSequentialForward.fog[55].dispatcher localJobs 3636
scalar FogSequentialForward.fog[55].dispatcher internalJobs 3634
scalar FogSequentialForward.fog[55].dispatcher externalJobs 2
scalar FogSequentialForward.fog[55].dispatcher remoteJobs 0
scalar FogSequentialForward.fog[55].dispatcher probeQueries 0
scalar FogSequentialForward.fog[55].dispatcher probeAnswers 0
scalar FogSequentialForward.fog[55].dispatcher droppedJobsSLA 0
scalar FogSequentialForward.fog[55].dispatcher jobs_class_1 3636
scalar FogSequentialForward.fog[55].dispatcher localJobs_class_1 3636
scalar FogSequentialForward.fog[55].server[0] rho 0.56178158521652
scalar FogSequentialForward.fog[55].server[0] congestionRatio 0
scalar FogSequentialForward.fog[55].server[0] totalJobs 3636
scalar FogSequentialForward.fog[55].server[0] droppedJobsQueue 0
scalar FogSequentialForward.fog[55].server[0] droppedJobsTimout 0
scalar FogSequentialForward.fog[55].server[0] droppedJobsSLA 0
scalar FogSequentialForward.fog[55].server[0] droppedJobsTotal 0
scalar FogSequentialForward.fog[56].dispatcher localJobs 3604
scalar FogSequentialForward.fog[56].dispatcher internalJobs 3606
scalar FogSequentialForward.fog[56].dispatcher externalJobs 0
scalar FogSequentialForward.fog[56].dispatcher remoteJobs 2
scalar FogSequentialForward.fog[56].dispatcher probeQueries 0
scalar FogSequentialForward.fog[56].dispatcher probeAnswers 0
scalar FogSequentialForward.fog[56].dispatcher droppedJobsSLA 0
scalar FogSequentialForward.fog[56].dispatcher jobs_class_1 3606
scalar FogSequentialForward.fog[56].dispatcher remoteJobs_class_1 2
scalar FogSequentialForward.fog[56].dispatcher localJobs_class_1 3604
scalar FogSequentialForward.fog[56].server[0] rho 0.55704659223557
scalar FogSequentialForward.fog[56].server[0] congestionRatio 0
scalar FogSequentialForward.fog[56].server[0] totalJobs 3604
scalar FogSequentialForward.fog[56].server[0] droppedJobsQueue 0
scalar FogSequentialForward.fog[56].server[0] droppedJobsTimout 0
scalar FogSequentialForward.fog[56].server[0] droppedJobsSLA 0
scalar FogSequentialForward.fog[56].server[0] droppedJobsTotal 0
scalar FogSequentialForward.fog[57].dispatcher localJobs 3493
scalar FogSequentialForward.fog[57].dispatcher internalJobs 3493
scalar FogSequentialForward.fog[57].dispatcher externalJobs 2
scalar FogSequentialForward.fog[57].dispatcher remoteJobs 2
scalar FogSequentialForward.fog[57].dispatcher probeQueries 0
scalar FogSequentialForward.fog[57].dispatcher probeAnswers 0
scalar FogSequentialForward.fog[57].dispatcher droppedJobsSLA 0
scalar FogSequentialForward.fog[57].dispatcher jobs_class_1 3495
scalar FogSequentialForward.fog[57].dispatcher remoteJobs_class_1 2
scalar FogSequentialForward.fog[57].dispatcher localJobs_class_1 3493
scalar FogSequentialForward.fog[57].server[0] rho 0.53986173868179
scalar FogSequentialForward.fog[57].server[0] congestionRatio 0
scalar FogSequentialForward.fog[57].server[0] totalJobs 3493
scalar FogSequentialForward.fog[57].server[0] droppedJobsQueue 0
scalar FogSequentialForward.fog[57].server[0] droppedJobsTimout 0
scalar FogSequentialForward.fog[57].server[0] droppedJobsSLA 0
scalar FogSequentialForward.fog[57].server[0] droppedJobsTotal 0
scalar FogSequentialForward.fog[58].dispatcher localJobs 3498
scalar FogSequentialForward.fog[58].dispatcher internalJobs 3497
scalar FogSequentialForward.fog[58].dispatcher externalJobs 1
scalar FogSequentialForward.fog[58].dispatcher remoteJobs 0
scalar FogSequentialForward.fog[58].dispatcher probeQueries 0
scalar FogSequentialForward.fog[58].dispatcher probeAnswers 0
scalar FogSequentialForward.fog[58].dispatcher droppedJobsSLA 0
scalar FogSequentialForward.fog[58].dispatcher jobs_class_1 3498
scalar FogSequentialForward.fog[58].dispatcher localJobs_class_1 3498
scalar FogSequentialForward.fog[58].server[0] rho 0.54072779417038
scalar FogSequentialForward.fog[58].server[0] congestionRatio 0
scalar FogSequentialForward.fog[58].server[0] totalJobs 3498
scalar FogSequentialForward.fog[58].server[0] droppedJobsQueue 0
scalar FogSequentialForward.fog[58].server[0] droppedJobsTimout 0
scalar FogSequentialForward.fog[58].server[0] droppedJobsSLA 0
scalar FogSequentialForward.fog[58].server[0] droppedJobsTotal 0
scalar FogSequentialForward.fog[59].dispatcher localJobs 3647
scalar FogSequentialForward.fog[59].dispatcher internalJobs 3647
scalar FogSequentialForward.fog[59].dispatcher externalJobs 1
scalar FogSequentialForward.fog[59].dispatcher remoteJobs 1
scalar FogSequentialForward.fog[59].dispatcher probeQueries 0
scalar FogSequentialForward.fog[59].dispatcher probeAnswers 0
scalar FogSequentialForward.fog[59].dispatcher droppedJobsSLA 0
scalar FogSequentialForward.fog[59].dispatcher jobs_class_1 3648
scalar FogSequentialForward.fog[59].dispatcher remoteJobs_class_1 1
scalar FogSequentialForward.fog[59].dispatcher localJobs_class_1 3647
scalar FogSequentialForward.fog[59].server[0] rho 0.5638901591301
scalar FogSequentialForward.fog[59].server[0] congestionRatio 0
scalar FogSequentialForward.fog[59].server[0] totalJobs 3647
scalar FogSequentialForward.fog[59].server[0] droppedJobsQueue 0
scalar FogSequentialForward.fog[59].server[0] droppedJobsTimout 0
scalar FogSequentialForward.fog[59].server[0] droppedJobsSLA 0
scalar FogSequentialForward.fog[59].server[0] droppedJobsTotal 0
scalar FogSequentialForward.fog[60].dispatcher localJobs 3482
scalar FogSequentialForward.fog[60].dispatcher internalJobs 3481
scalar FogSequentialForward.fog[60].dispatcher externalJobs 1
scalar FogSequentialForward.fog[60].dispatcher remoteJobs 0
scalar FogSequentialForward.fog[60].dispatcher probeQueries 0
scalar FogSequentialForward.fog[60].dispatcher probeAnswers 0
scalar FogSequentialForward.fog[60].dispatcher droppedJobsSLA 0
scalar FogSequentialForward.fog[60].dispatcher jobs_class_1 3482
scalar FogSequentialForward.fog[60].dispatcher localJobs_class_1 3482
scalar FogSequentialForward.fog[60].server[0] rho 0.53850668668747
scalar FogSequentialForward.fog[60].server[0] congestionRatio 0
scalar FogSequentialForward.fog[60].server[0] totalJobs 3482
scalar FogSequentialForward.fog[60].server[0] droppedJobsQueue 0
scalar FogSequentialForward.fog[60].server[0] droppedJobsTimout 0
scalar FogSequentialForward.fog[60].server[0] droppedJobsSLA 0
scalar FogSequentialForward.fog[60].server[0] droppedJobsTotal 0
scalar FogSequentialForward.fog[61].dispatcher localJobs 3559
scalar FogSequentialForward.fog[61].dispatcher internalJobs 3559
scalar FogSequentialForward.fog[61].dispatcher externalJobs 1
scalar FogSequentialForward.fog[61].dispatcher remoteJobs 1
scalar FogSequentialForward.fog[61].dispatcher probeQueries 0
scalar FogSequentialForward.fog[61].dispatcher probeAnswers 0
scalar FogSequentialForward.fog[61].dispatcher droppedJobsSLA 0
scalar FogSequentialForward.fog[61].dispatcher jobs_class_1 3560
scalar FogSequentialForward.fog[61].dispatcher remoteJobs_class_1 1
scalar FogSequentialForward.fog[61].dispatcher localJobs_class_1 3559
scalar FogSequentialForward.fog[61].server[0] rho 0.54986870288849
scalar FogSequentialForward.fog[61].server[0] congestionRatio 0
scalar FogSequentialForward.fog[61].server[0] totalJobs 3559
scalar FogSequentialForward.fog[61].server[0] droppedJobsQueue 0
scalar FogSequentialForward.fog[61].server[0] droppedJobsTimout 0
scalar FogSequentialForward.fog[61].server[0] droppedJobsSLA 0
scalar FogSequentialForward.fog[61].server[0] droppedJobsTotal 0
scalar FogSequentialForward.fog[62].dispatcher localJobs 3584
scalar FogSequentialForward.fog[62].dispatcher internalJobs 3585
scalar FogSequentialForward.fog[62].dispatcher externalJobs 0
scalar FogSequentialForward.fog[62].dispatcher remoteJobs 1
scalar FogSequentialForward.fog[62].dispatcher probeQueries 0
scalar FogSequentialForward.fog[62].dispatcher probeAnswers 0
scalar FogSequentialForward.fog[62].dispatcher droppedJobsSLA 0
scalar FogSequentialForward.fog[62].dispatcher jobs_class_1 3585
scalar FogSequentialForward.fog[62].dispatcher remoteJobs_class_1 1
scalar FogSequentialForward.fog[62].dispatcher localJobs_class_1 3584
scalar FogSequentialForward.fog[62].server[0] rho 0.55424004793167
scalar FogSequentialForward.fog[62].server[0] congestionRatio 0
scalar FogSequentialForward.fog[62].server[0] totalJobs 3584
scalar FogSequentialForward.fog[62].server[0] droppedJobsQueue 0
scalar FogSequentialForward.fog[62].server[0] droppedJobsTimout 0
scalar FogSequentialForward.fog[62].server[0] droppedJobsSLA 0
scalar FogSequentialForward.fog[62].server[0] droppedJobsTotal 0
scalar FogSequentialForward.fog[63].dispatcher localJobs 3671
scalar FogSequentialForward.fog[63].dispatcher internalJobs 3671
scalar FogSequentialForward.fog[63].dispatcher externalJobs 0
scalar FogSequentialForward.fog[63].dispatcher remoteJobs 0
scalar FogSequentialForward.fog[63].dispatcher probeQueries 0
scalar FogSequentialForward.fog[63].dispatcher probeAnswers 0
scalar FogSequentialForward.fog[63].dispatcher droppedJobsSLA 0
scalar FogSequentialForward.fog[63].dispatcher jobs_class_1 3671
scalar FogSequentialForward.fog[63].dispatcher localJobs_class_1 3671
scalar FogSequentialForward.fog[63].server[0] rho 0.56744605302811
scalar FogSequentialForward.fog[63].server[0] congestionRatio 0
scalar FogSequentialForward.fog[63].server[0] totalJobs 3671
scalar FogSequentialForward.fog[63].server[0] droppedJobsQueue 0
scalar FogSequentialForward.fog[63].server[0] droppedJobsTimout 0
scalar FogSequentialForward.fog[63].server[0] droppedJobsSLA 0
scalar FogSequentialForward.fog[63].server[0] droppedJobsTotal 0
scalar FogSequentialForward.fog[64].dispatcher localJobs 3541
scalar FogSequentialForward.fog[64].dispatcher internalJobs 3543
scalar FogSequentialForward.fog[64].dispatcher externalJobs 2
scalar FogSequentialForward.fog[64].dispatcher remoteJobs 4
scalar FogSequentialForward.fog[64].dispatcher probeQueries 0
scalar FogSequentialForward.fog[64].dispatcher probeAnswers 0
scalar FogSequentialForward.fog[64].dispatcher droppedJobsSLA 0
scalar FogSequentialForward.fog[64].dispatcher jobs_class_1 3545
scalar FogSequentialForward.fog[64].dispatcher remoteJobs_class_1 4
scalar FogSequentialForward.fog[64].dispatcher localJobs_class_1 3541
scalar FogSequentialForward.fog[64].server[0] rho 0.5479229092598
scalar FogSequentialForward.fog[64].server[0] congestionRatio 0
scalar FogSequentialForward.fog[64].server[0] totalJobs 3541
scalar FogSequentialForward.fog[64].server[0] droppedJobsQueue 0
scalar FogSequentialForward.fog[64].server[0] droppedJobsTimout 0
scalar FogSequentialForward.fog[64].server[0] droppedJobsSLA 0
scalar FogSequentialForward.fog[64].server[0] droppedJobsTotal 0
scalar FogSequentialForward.fog[65].dispatcher localJobs 3644
scalar FogSequentialForward.fog[65].dispatcher internalJobs 3644
scalar FogSequentialForward.fog[65].dispatcher externalJobs 0
scalar FogSequentialForward.fog[65].dispatcher remoteJobs 0
scalar FogSequentialForward.fog[65].dispatcher probeQueries 0
scalar FogSequentialForward.fog[65].dispatcher probeAnswers 0
scalar FogSequentialForward.fog[65].dispatcher droppedJobsSLA 0
scalar FogSequentialForward.fog[65].dispatcher jobs_class_1 3644
scalar FogSequentialForward.fog[65].dispatcher localJobs_class_1 3644
scalar FogSequentialForward.fog[65].server[0] rho 0.56316483020782
scalar FogSequentialForward.fog[65].server[0] congestionRatio 0
scalar FogSequentialForward.fog[65].server[0] totalJobs 3644
scalar FogSequentialForward.fog[65].server[0] droppedJobsQueue 0
scalar FogSequentialForward.fog[65].server[0] droppedJobsTimout 0
scalar FogSequentialForward.fog[65].server[0] droppedJobsSLA 0
scalar FogSequentialForward.fog[65].server[0] droppedJobsTotal 0
scalar FogSequentialForward.fog[66].dispatcher localJobs 3629
scalar FogSequentialForward.fog[66].dispatcher internalJobs 3628
scalar FogSequentialForward.fog[66].dispatcher externalJobs 1
scalar FogSequentialForward.fog[66].dispatcher remoteJobs 0
scalar FogSequentialForward.fog[66].dispatcher probeQueries 0
scalar FogSequentialForward.fog[66].dispatcher probeAnswers 0
scalar FogSequentialForward.fog[66].dispatcher droppedJobsSLA 0
scalar FogSequentialForward.fog[66].dispatcher jobs_class_1 3629
scalar FogSequentialForward.fog[66].dispatcher localJobs_class_1 3629
scalar FogSequentialForward.fog[66].server[0] rho 0.56117790937424
scalar FogSequentialForward.fog[66].server[0] congestionRatio 0
scalar FogSequentialForward.fog[66].server[0] totalJobs 3629
scalar FogSequentialForward.fog[66].server[0] droppedJobsQueue 0
scalar FogSequentialForward.fog[66].server[0] droppedJobsTimout 0
scalar FogSequentialForward.fog[66].server[0] droppedJobsSLA 0
scalar FogSequentialForward.fog[66].server[0] droppedJobsTotal 0
scalar FogSequentialForward.fog[67].dispatcher localJobs 3668
scalar FogSequentialForward.fog[67].dispatcher internalJobs 3669
scalar FogSequentialForward.fog[67].dispatcher externalJobs 0
scalar FogSequentialForward.fog[67].dispatcher remoteJobs 1
scalar FogSequentialForward.fog[67].dispatcher probeQueries 0
scalar FogSequentialForward.fog[67].dispatcher probeAnswers 0
scalar FogSequentialForward.fog[67].dispatcher droppedJobsSLA 0
scalar FogSequentialForward.fog[67].dispatcher jobs_class_1 3669
scalar FogSequentialForward.fog[67].dispatcher remoteJobs_class_1 1
scalar FogSequentialForward.fog[67].dispatcher localJobs_class_1 3668
scalar FogSequentialForward.fog[67].server[0] rho 0.56715530157089
scalar FogSequentialForward.fog[67].server[0] congestionRatio 0
scalar FogSequentialForward.fog[67].server[0] totalJobs 3668
scalar FogSequentialForward.fog[67].server[0] droppedJobsQueue 0
scalar FogSequentialForward.fog[67].server[0] droppedJobsTimout 0
scalar FogSequentialForward.fog[67].server[0] droppedJobsSLA 0
scalar FogSequentialForward.fog[67].server[0] droppedJobsTotal 0
scalar FogSequentialForward.fog[68].dispatcher localJobs 3582
scalar FogSequentialForward.fog[68].dispatcher internalJobs 3585
scalar FogSequentialForward.fog[68].dispatcher externalJobs 1
scalar FogSequentialForward.fog[68].dispatcher remoteJobs 4
scalar FogSequentialForward.fog[68].dispatcher probeQueries 0
scalar FogSequentialForward.fog[68].dispatcher probeAnswers 0
scalar FogSequentialForward.fog[68].dispatcher droppedJobsSLA 0
scalar FogSequentialForward.fog[68].dispatcher jobs_class_1 3586
scalar FogSequentialForward.fog[68].dispatcher remoteJobs_class_1 4
scalar FogSequentialForward.fog[68].dispatcher localJobs_class_1 3582
scalar FogSequentialForward.fog[68].server[0] rho 0.55366373062134
scalar FogSequentialForward.fog[68].server[0] congestionRatio 0
scalar FogSequentialForward.fog[68].server[0] totalJobs 3582
scalar FogSequentialForward.fog[68].server[0] droppedJobsQueue 0
scalar FogSequentialForward.fog[68].server[0] droppedJobsTimout 0
scalar FogSequentialForward.fog[68].server[0] droppedJobsSLA 0
scalar FogSequentialForward.fog[68].server[0] droppedJobsTotal 0
scalar FogSequentialForward.fog[69].dispatcher localJobs 3576
scalar FogSequentialForward.fog[69].dispatcher internalJobs 3575
scalar FogSequentialForward.fog[69].dispatcher externalJobs 1
scalar FogSequentialForward.fog[69].dispatcher remoteJobs 0
scalar FogSequentialForward.fog[69].dispatcher probeQueries 0
scalar FogSequentialForward.fog[69].dispatcher probeAnswers 0
scalar FogSequentialForward.fog[69].dispatcher droppedJobsSLA 0
scalar FogSequentialForward.fog[69].dispatcher jobs_class_1 3576
scalar FogSequentialForward.fog[69].dispatcher localJobs_class_1 3576
scalar FogSequentialForward.fog[69].server[0] rho 0.55269408226013
scalar FogSequentialForward.fog[69].server[0] congestionRatio 0
scalar FogSequentialForward.fog[69].server[0] totalJobs 3576
scalar FogSequentialForward.fog[69].server[0] droppedJobsQueue 0
scalar FogSequentialForward.fog[69].server[0] droppedJobsTimout 0
scalar FogSequentialForward.fog[69].server[0] droppedJobsSLA 0
scalar FogSequentialForward.fog[69].server[0] droppedJobsTotal 0
scalar FogSequentialForward.fog[70].dispatcher localJobs 3569
scalar FogSequentialForward.fog[70].dispatcher internalJobs 3566
scalar FogSequentialForward.fog[70].dispatcher externalJobs 3
scalar FogSequentialForward.fog[70].dispatcher remoteJobs 0
scalar FogSequentialForward.fog[70].dispatcher probeQueries 0
scalar FogSequentialForward.fog[70].dispatcher probeAnswers 0
scalar FogSequentialForward.fog[70].dispatcher droppedJobsSLA 0
scalar FogSequentialForward.fog[70].dispatcher jobs_class_1 3569
scalar FogSequentialForward.fog[70].dispatcher localJobs_class_1 3569
scalar FogSequentialForward.fog[70].server[0] rho 0.55182981491089
scalar FogSequentialForward.fog[70].server[0] congestionRatio 0
scalar FogSequentialForward.fog[70].server[0] totalJobs 3569
scalar FogSequentialForward.fog[70].server[0] droppedJobsQueue 0
scalar FogSequentialForward.fog[70].server[0] droppedJobsTimout 0
scalar FogSequentialForward.fog[70].server[0] droppedJobsSLA 0
scalar FogSequentialForward.fog[70].server[0] droppedJobsTotal 0
scalar FogSequentialForward.fog[71].dispatcher localJobs 3555
scalar FogSequentialForward.fog[71].dispatcher internalJobs 3558
scalar FogSequentialForward.fog[71].dispatcher externalJobs 0
scalar FogSequentialForward.fog[71].dispatcher remoteJobs 3
scalar FogSequentialForward.fog[71].dispatcher probeQueries 0
scalar FogSequentialForward.fog[71].dispatcher probeAnswers 0
scalar FogSequentialForward.fog[71].dispatcher droppedJobsSLA 0
scalar FogSequentialForward.fog[71].dispatcher jobs_class_1 3558
scalar FogSequentialForward.fog[71].dispatcher remoteJobs_class_1 3
scalar FogSequentialForward.fog[71].dispatcher localJobs_class_1 3555
scalar FogSequentialForward.fog[71].server[0] rho 0.5496529340744
scalar FogSequentialForward.fog[71].server[0] congestionRatio 0
scalar FogSequentialForward.fog[71].server[0] totalJobs 3555
scalar FogSequentialForward.fog[71].server[0] droppedJobsQueue 0
scalar FogSequentialForward.fog[71].server[0] droppedJobsTimout 0
scalar FogSequentialForward.fog[71].server[0] droppedJobsSLA 0
scalar FogSequentialForward.fog[71].server[0] droppedJobsTotal 0
scalar FogSequentialForward.fog[72].dispatcher localJobs 3655
scalar FogSequentialForward.fog[72].dispatcher internalJobs 3656
scalar FogSequentialForward.fog[72].dispatcher externalJobs 1
scalar FogSequentialForward.fog[72].dispatcher remoteJobs 2
scalar FogSequentialForward.fog[72].dispatcher probeQueries 0
scalar FogSequentialForward.fog[72].dispatcher probeAnswers 0
scalar FogSequentialForward.fog[72].dispatcher droppedJobsSLA 0
scalar FogSequentialForward.fog[72].dispatcher jobs_class_1 3657
scalar FogSequentialForward.fog[72].dispatcher remoteJobs_class_1 2
scalar FogSequentialForward.fog[72].dispatcher localJobs_class_1 3655
scalar FogSequentialForward.fog[72].server[0] rho 0.5650926232338
scalar FogSequentialForward.fog[72].server[0] congestionRatio 0
scalar FogSequentialForward.fog[72].server[0] totalJobs 3655
scalar FogSequentialForward.fog[72].server[0] droppedJobsQueue 0
scalar FogSequentialForward.fog[72].server[0] droppedJobsTimout 0
scalar FogSequentialForward.fog[72].server[0] droppedJobsSLA 0
scalar FogSequentialForward.fog[72].server[0] droppedJobsTotal 0
scalar FogSequentialForward.fog[73].dispatcher localJobs 3576
scalar FogSequentialForward.fog[73].dispatcher internalJobs 3575
scalar FogSequentialForward.fog[73].dispatcher externalJobs 1
scalar FogSequentialForward.fog[73].dispatcher remoteJobs 0
scalar FogSequentialForward.fog[73].dispatcher probeQueries 0
scalar FogSequentialForward.fog[73].dispatcher probeAnswers 0
scalar FogSequentialForward.fog[73].dispatcher droppedJobsSLA 0
scalar FogSequentialForward.fog[73].dispatcher jobs_class_1 3576
scalar FogSequentialForward.fog[73].dispatcher localJobs_class_1 3576
scalar FogSequentialForward.fog[73].server[0] rho 0.55290096998215
scalar FogSequentialForward.fog[73].server[0] congestionRatio 0
scalar FogSequentialForward.fog[73].server[0] totalJobs 3576
scalar FogSequentialForward.fog[73].server[0] droppedJobsQueue 0
scalar FogSequentialForward.fog[73].server[0] droppedJobsTimout 0
scalar FogSequentialForward.fog[73].server[0] droppedJobsSLA 0
scalar FogSequentialForward.fog[73].server[0] droppedJobsTotal 0
scalar FogSequentialForward.fog[74].dispatcher localJobs 3625
scalar FogSequentialForward.fog[74].dispatcher internalJobs 3628
scalar FogSequentialForward.fog[74].dispatcher externalJobs 0
scalar FogSequentialForward.fog[74].dispatcher remoteJobs 3
scalar FogSequentialForward.fog[74].dispatcher probeQueries 0
scalar FogSequentialForward.fog[74].dispatcher probeAnswers 0
scalar FogSequentialForward.fog[74].dispatcher droppedJobsSLA 0
scalar FogSequentialForward.fog[74].dispatcher jobs_class_1 3628
scalar FogSequentialForward.fog[74].dispatcher remoteJobs_class_1 3
scalar FogSequentialForward.fog[74].dispatcher localJobs_class_1 3625
scalar FogSequentialForward.fog[74].server[0] rho 0.56058788299561
scalar FogSequentialForward.fog[74].server[0] congestionRatio 0
scalar FogSequentialForward.fog[74].server[0] totalJobs 3625
scalar FogSequentialForward.fog[74].server[0] droppedJobsQueue 0
[...]
scalar FogSequentialForward.fog[82].dispatcher localJobs 3622
scalar FogSequentialForward.fog[82].dispatcher internalJobs 3622
scalar FogSequentialForward.fog[82].dispatcher externalJobs 0
scalar FogSequentialForward.fog[82].dispatcher remoteJobs 0
scalar FogSequentialForward.fog[82].dispatcher probeQueries 0
scalar FogSequentialForward.fog[82].dispatcher probeAnswers 0
scalar FogSequentialForward.fog[82].dispatcher droppedJobsSLA 0
scalar FogSequentialForward.fog[82].dispatcher jobs_class_1 3622
scalar FogSequentialForward.fog[82].dispatcher localJobs_class_1 3622
scalar FogSequentialForward.fog[82].server[0] rho 0.5596244931221
scalar FogSequentialForward.fog[82].server[0] congestionRatio 0
scalar FogSequentialForward.fog[82].server[0] totalJobs 3622
scalar FogSequentialForward.fog[82].server[0] droppedJobsQueue 0
scalar FogSequentialForward.fog[82].server[0] droppedJobsTimout 0
scalar FogSequentialForward.fog[82].server[0] droppedJobsSLA 0
scalar FogSequentialForward.fog[82].server[0] droppedJobsTotal 0
scalar FogSequentialForward.fog[83].dispatcher localJobs 3633
scalar FogSequentialForward.fog[83].dispatcher internalJobs 3631
scalar FogSequentialForward.fog[83].dispatcher externalJobs 4
scalar FogSequentialForward.fog[83].dispatcher remoteJobs 2
scalar FogSequentialForward.fog[83].dispatcher probeQueries 0
scalar FogSequentialForward.fog[83].dispatcher probeAnswers 0
scalar FogSequentialForward.fog[83].dispatcher droppedJobsSLA 0
scalar FogSequentialForward.fog[83].dispatcher jobs_class_1 3635
scalar FogSequentialForward.fog[83].dispatcher remoteJobs_class_1 2
scalar FogSequentialForward.fog[83].dispatcher localJobs_class_1 3633
scalar FogSequentialForward.fog[83].server[0] rho 0.56142646074295
scalar FogSequentialForward.fog[83].server[0] congestionRatio 0
scalar FogSequentialForward.fog[83].server[0] totalJobs 3633
scalar FogSequentialForward.fog[83].server[0] droppedJobsQueue 0
scalar FogSequentialForward.fog[83].server[0] droppedJobsTimout 0
scalar FogSequentialForward.fog[83].server[0] droppedJobsSLA 0
scalar FogSequentialForward.fog[83].server[0] droppedJobsTotal 0
scalar FogSequentialForward.fog[84].dispatcher localJobs 3610
scalar FogSequentialForward.fog[84].dispatcher internalJobs 3609
scalar FogSequentialForward.fog[84].dispatcher externalJobs 1
scalar FogSequentialForward.fog[84].dispatcher remoteJobs 0
scalar FogSequentialForward.fog[84].dispatcher probeQueries 0
scalar FogSequentialForward.fog[84].dispatcher probeAnswers 0
scalar FogSequentialForward.fog[84].dispatcher droppedJobsSLA 0
scalar FogSequentialForward.fog[84].dispatcher jobs_class_1 3610
scalar FogSequentialForward.fog[84].dispatcher localJobs_class_1 3610
scalar FogSequentialForward.fog[84].server[0] rho 0.55797582864761
scalar FogSequentialForward.fog[84].server[0] congestionRatio 0
scalar FogSequentialForward.fog[84].server[0] totalJobs 3610
scalar FogSequentialForward.fog[84].server[0] droppedJobsQueue 0
scalar FogSequentialForward.fog[84].server[0] droppedJobsTimout 0
scalar FogSequentialForward.fog[84].server[0] droppedJobsSLA 0
scalar FogSequentialForward.fog[84].server[0] droppedJobsTotal 0
scalar FogSequentialForward.fog[85].dispatcher localJobs 3553
scalar FogSequentialForward.fog[85].dispatcher internalJobs 3552
scalar FogSequentialForward.fog[85].dispatcher externalJobs 1
scalar FogSequentialForward.fog[85].dispatcher remoteJobs 0
scalar FogSequentialForward.fog[85].dispatcher probeQueries 0
scalar FogSequentialForward.fog[85].dispatcher probeAnswers 0
scalar FogSequentialForward.fog[85].dispatcher droppedJobsSLA 0
scalar FogSequentialForward.fog[85].dispatcher jobs_class_1 3553
scalar FogSequentialForward.fog[85].dispatcher localJobs_class_1 3553
scalar FogSequentialForward.fog[85].server[0] rho 0.54937720298767
scalar FogSequentialForward.fog[85].server[0] congestionRatio 0
scalar FogSequentialForward.fog[85].server[0] totalJobs 3553
scalar FogSequentialForward.fog[85].server[0] droppedJobsQueue 0
scalar FogSequentialForward.fog[85].server[0] droppedJobsTimout 0
scalar FogSequentialForward.fog[85].server[0] droppedJobsSLA 0
scalar FogSequentialForward.fog[85].server[0] droppedJobsTotal 0
scalar FogSequentialForward.fog[86].dispatcher localJobs 3642
scalar FogSequentialForward.fog[86].dispatcher internalJobs 3642
scalar FogSequentialForward.fog[86].dispatcher externalJobs 1
scalar FogSequentialForward.fog[86].dispatcher remoteJobs 1
scalar FogSequentialForward.fog[86].dispatcher probeQueries 0
scalar FogSequentialForward.fog[86].dispatcher probeAnswers 0
scalar FogSequentialForward.fog[86].dispatcher droppedJobsSLA 0
scalar FogSequentialForward.fog[86].dispatcher jobs_class_1 3643
scalar FogSequentialForward.fog[86].dispatcher remoteJobs_class_1 1
scalar FogSequentialForward.fog[86].dispatcher localJobs_class_1 3642
scalar FogSequentialForward.fog[86].server[0] rho 0.56298530101776
scalar FogSequentialForward.fog[86].server[0] congestionRatio 0
scalar FogSequentialForward.fog[86].server[0] totalJobs 3642
scalar FogSequentialForward.fog[86].server[0] droppedJobsQueue 0
scalar FogSequentialForward.fog[86].server[0] droppedJobsTimout 0
scalar FogSequentialForward.fog[86].server[0] droppedJobsSLA 0
scalar FogSequentialForward.fog[86].server[0] droppedJobsTotal 0
scalar FogSequentialForward.fog[87].dispatcher localJobs 3637
scalar FogSequentialForward.fog[87].dispatcher internalJobs 3636
scalar FogSequentialForward.fog[87].dispatcher externalJobs 1
scalar FogSequentialForward.fog[87].dispatcher remoteJobs 0
scalar FogSequentialForward.fog[87].dispatcher probeQueries 0
scalar FogSequentialForward.fog[87].dispatcher probeAnswers 0
scalar FogSequentialForward.fog[87].dispatcher droppedJobsSLA 0
scalar FogSequentialForward.fog[87].dispatcher jobs_class_1 3637
scalar FogSequentialForward.fog[87].dispatcher localJobs_class_1 3637
scalar FogSequentialForward.fog[87].server[0] rho 0.5626060962677
scalar FogSequentialForward.fog[87].server[0] congestionRatio 0
scalar FogSequentialForward.fog[87].server[0] totalJobs 3637
scalar FogSequentialForward.fog[87].server[0] droppedJobsQueue 0
scalar FogSequentialForward.fog[87].server[0] droppedJobsTimout 0
scalar FogSequentialForward.fog[87].server[0] droppedJobsSLA 0
scalar FogSequentialForward.fog[87].server[0] droppedJobsTotal 0
scalar FogSequentialForward.fog[88].dispatcher localJobs 3629
scalar FogSequentialForward.fog[88].dispatcher internalJobs 3629
scalar FogSequentialForward.fog[88].dispatcher externalJobs 0
scalar FogSequentialForward.fog[88].dispatcher remoteJobs 0
scalar FogSequentialForward.fog[88].dispatcher probeQueries 0
scalar FogSequentialForward.fog[88].dispatcher probeAnswers 0
scalar FogSequentialForward.fog[88].dispatcher droppedJobsSLA 0
scalar FogSequentialForward.fog[88].dispatcher jobs_class_1 3629
scalar FogSequentialForward.fog[88].dispatcher localJobs_class_1 3629
scalar FogSequentialForward.fog[88].server[0] rho 0.56127333641052
scalar FogSequentialForward.fog[88].server[0] congestionRatio 0
scalar FogSequentialForward.fog[88].server[0] totalJobs 3629
scalar FogSequentialForward.fog[88].server[0] droppedJobsQueue 0
scalar FogSequentialForward.fog[88].server[0] droppedJobsTimout 0
scalar FogSequentialForward.fog[88].server[0] droppedJobsSLA 0
scalar FogSequentialForward.fog[88].server[0] droppedJobsTotal 0
scalar FogSequentialForward.fog[89].dispatcher localJobs 3593
scalar FogSequentialForward.fog[89].dispatcher internalJobs 3593
scalar FogSequentialForward.fog[89].dispatcher externalJobs 0
scalar FogSequentialForward.fog[89].dispatcher remoteJobs 0
scalar FogSequentialForward.fog[89].dispatcher probeQueries 0
scalar FogSequentialForward.fog[89].dispatcher probeAnswers 0
scalar FogSequentialForward.fog[89].dispatcher droppedJobsSLA 0
scalar FogSequentialForward.fog[89].dispatcher jobs_class_1 3593
scalar FogSequentialForward.fog[89].dispatcher localJobs_class_1 3593
scalar FogSequentialForward.fog[89].server[0] rho 0.55522119998932
scalar FogSequentialForward.fog[89].server[0] congestionRatio 0
scalar FogSequentialForward.fog[89].server[0] totalJobs 3593
scalar FogSequentialForward.fog[89].server[0] droppedJobsQueue 0
scalar FogSequentialForward.fog[89].server[0] droppedJobsTimout 0
scalar FogSequentialForward.fog[89].server[0] droppedJobsSLA 0
scalar FogSequentialForward.fog[89].server[0] droppedJobsTotal 0
scalar FogSequentialForward.fog[90].dispatcher localJobs 3551
scalar FogSequentialForward.fog[90].dispatcher internalJobs 3553
scalar FogSequentialForward.fog[90].dispatcher externalJobs 0
scalar FogSequentialForward.fog[90].dispatcher remoteJobs 2
scalar FogSequentialForward.fog[90].dispatcher probeQueries 0
scalar FogSequentialForward.fog[90].dispatcher probeAnswers 0
scalar FogSequentialForward.fog[90].dispatcher droppedJobsSLA 0
scalar FogSequentialForward.fog[90].dispatcher jobs_class_1 3553
scalar FogSequentialForward.fog[90].dispatcher remoteJobs_class_1 2
scalar FogSequentialForward.fog[90].dispatcher localJobs_class_1 3551
scalar FogSequentialForward.fog[90].server[0] rho 0.54878968000412
scalar FogSequentialForward.fog[90].server[0] congestionRatio 0
scalar FogSequentialForward.fog[90].server[0] totalJobs 3551
scalar FogSequentialForward.fog[90].server[0] droppedJobsQueue 0
scalar FogSequentialForward.fog[90].server[0] droppedJobsTimout 0
scalar FogSequentialForward.fog[90].server[0] droppedJobsSLA 0
scalar FogSequentialForward.fog[90].server[0] droppedJobsTotal 0
scalar FogSequentialForward.fog[91].dispatcher localJobs 3538
scalar FogSequentialForward.fog[91].dispatcher internalJobs 3541
scalar FogSequentialForward.fog[91].dispatcher externalJobs 0
scalar FogSequentialForward.fog[91].dispatcher remoteJobs 3
scalar FogSequentialForward.fog[91].dispatcher probeQueries 0
scalar FogSequentialForward.fog[91].dispatcher probeAnswers 0
scalar FogSequentialForward.fog[91].dispatcher droppedJobsSLA 0
scalar FogSequentialForward.fog[91].dispatcher jobs_class_1 3541
scalar FogSequentialForward.fog[91].dispatcher remoteJobs_class_1 3
scalar FogSequentialForward.fog[91].dispatcher localJobs_class_1 3538
scalar FogSequentialForward.fog[91].server[0] rho 0.5471396446228
scalar FogSequentialForward.fog[91].server[0] congestionRatio 0
scalar FogSequentialForward.fog[91].server[0] totalJobs 3538
scalar FogSequentialForward.fog[91].server[0] droppedJobsQueue 0
scalar FogSequentialForward.fog[91].server[0] droppedJobsTimout 0
scalar FogSequentialForward.fog[91].server[0] droppedJobsSLA 0
scalar FogSequentialForward.fog[91].server[0] droppedJobsTotal 0
scalar FogSequentialForward.fog[92].dispatcher localJobs 3599
scalar FogSequentialForward.fog[92].dispatcher internalJobs 3600
scalar FogSequentialForward.fog[92].dispatcher externalJobs 0
scalar FogSequentialForward.fog[92].dispatcher remoteJobs 1
scalar FogSequentialForward.fog[92].dispatcher probeQueries 0
scalar FogSequentialForward.fog[92].dispatcher probeAnswers 0
scalar FogSequentialForward.fog[92].dispatcher droppedJobsSLA 0
scalar FogSequentialForward.fog[92].dispatcher jobs_class_1 3600
scalar FogSequentialForward.fog[92].dispatcher remoteJobs_class_1 1
scalar FogSequentialForward.fog[92].dispatcher localJobs_class_1 3599
scalar FogSequentialForward.fog[92].server[0] rho 0.55647152662277
scalar FogSequentialForward.fog[92].server[0] congestionRatio 0
scalar FogSequentialForward.fog[92].server[0] totalJobs 3599
scalar FogSequentialForward.fog[92].server[0] droppedJobsQueue 0
scalar FogSequentialForward.fog[92].server[0] droppedJobsTimout 0
scalar FogSequentialForward.fog[92].server[0] droppedJobsSLA 0
scalar FogSequentialForward.fog[92].server[0] droppedJobsTotal 0
scalar FogSequentialForward.fog[93].dispatcher localJobs 3580
scalar FogSequentialForward.fog[93].dispatcher internalJobs 3579
scalar FogSequentialForward.fog[93].dispatcher externalJobs 1
scalar FogSequentialForward.fog[93].dispatcher remoteJobs 0
scalar FogSequentialForward.fog[93].dispatcher probeQueries 0
scalar FogSequentialForward.fog[93].dispatcher probeAnswers 0
scalar FogSequentialForward.fog[93].dispatcher droppedJobsSLA 0
scalar FogSequentialForward.fog[93].dispatcher jobs_class_1 3580
scalar FogSequentialForward.fog[93].dispatcher localJobs_class_1 3580
scalar FogSequentialForward.fog[93].server[0] rho 0.55351614952087
scalar FogSequentialForward.fog[93].server[0] congestionRatio 0
scalar FogSequentialForward.fog[93].server[0] totalJobs 3580
scalar FogSequentialForward.fog[93].server[0] droppedJobsQueue 0
scalar FogSequentialForward.fog[93].server[0] droppedJobsTimout 0
scalar FogSequentialForward.fog[93].server[0] droppedJobsSLA 0
scalar FogSequentialForward.fog[93].server[0] droppedJobsTotal 0
scalar FogSequentialForward.fog[94].dispatcher localJobs 3592
scalar FogSequentialForward.fog[94].dispatcher internalJobs 3591
scalar FogSequentialForward.fog[94].dispatcher externalJobs 1
scalar FogSequentialForward.fog[94].dispatcher remoteJobs 0
scalar FogSequentialForward.fog[94].dispatcher probeQueries 0
scalar FogSequentialForward.fog[94].dispatcher probeAnswers 0
scalar FogSequentialForward.fog[94].dispatcher droppedJobsSLA 0
scalar FogSequentialForward.fog[94].dispatcher jobs_class_1 3592
scalar FogSequentialForward.fog[94].dispatcher localJobs_class_1 3592
scalar FogSequentialForward.fog[94].server[0] rho 0.55545997619629
scalar FogSequentialForward.fog[94].server[0] congestionRatio 0
scalar FogSequentialForward.fog[94].server[0] totalJobs 3592
scalar FogSequentialForward.fog[94].server[0] droppedJobsQueue 0
scalar FogSequentialForward.fog[94].server[0] droppedJobsTimout 0
scalar FogSequentialForward.fog[94].server[0] droppedJobsSLA 0
scalar FogSequentialForward.fog[94].server[0] droppedJobsTotal 0
scalar FogSequentialForward.fog[95].dispatcher localJobs 3682
scalar FogSequentialForward.fog[95].dispatcher internalJobs 3681
scalar FogSequentialForward.fog[95].dispatcher externalJobs 1
scalar FogSequentialForward.fog[95].dispatcher remoteJobs 0
scalar FogSequentialForward.fog[95].dispatcher probeQueries 0
scalar FogSequentialForward.fog[95].dispatcher probeAnswers 0
scalar FogSequentialForward.fog[95].dispatcher droppedJobsSLA 0
scalar FogSequentialForward.fog[95].dispatcher jobs_class_1 3682
scalar FogSequentialForward.fog[95].dispatcher localJobs_class_1 3682
scalar FogSequentialForward.fog[95].server[0] rho 0.56908476352692
scalar FogSequentialForward.fog[95].server[0] congestionRatio 0
scalar FogSequentialForward.fog[95].server[0] totalJobs 3682
scalar FogSequentialForward.fog[95].server[0] droppedJobsQueue 0
scalar FogSequentialForward.fog[95].server[0] droppedJobsTimout 0
scalar FogSequentialForward.fog[95].server[0] droppedJobsSLA 0
scalar FogSequentialForward.fog[95].server[0] droppedJobsTotal 0
scalar FogSequentialForward.fog[96].dispatcher localJobs 3699
scalar FogSequentialForward.fog[96].dispatcher internalJobs 3699
scalar FogSequentialForward.fog[96].dispatcher externalJobs 1
scalar FogSequentialForward.fog[96].dispatcher remoteJobs 1
scalar FogSequentialForward.fog[96].dispatcher probeQueries 0
scalar FogSequentialForward.fog[96].dispatcher probeAnswers 0
scalar FogSequentialForward.fog[96].dispatcher droppedJobsSLA 0
scalar FogSequentialForward.fog[96].dispatcher jobs_class_1 3700
scalar FogSequentialForward.fog[96].dispatcher remoteJobs_class_1 1
scalar FogSequentialForward.fog[96].dispatcher localJobs_class_1 3699
scalar FogSequentialForward.fog[96].server[0] rho 0.57216989994049
scalar FogSequentialForward.fog[96].server[0] congestionRatio 0
scalar FogSequentialForward.fog[96].server[0] totalJobs 3699
scalar FogSequentialForward.fog[96].server[0] droppedJobsQueue 0
scalar FogSequentialForward.fog[96].server[0] droppedJobsTimout 0
scalar FogSequentialForward.fog[96].server[0] droppedJobsSLA 0
scalar FogSequentialForward.fog[96].server[0] droppedJobsTotal 0
scalar FogSequentialForward.fog[97].dispatcher localJobs 3635
scalar FogSequentialForward.fog[97].dispatcher internalJobs 3637
scalar FogSequentialForward.fog[97].dispatcher externalJobs 1
scalar FogSequentialForward.fog[97].dispatcher remoteJobs 3
scalar FogSequentialForward.fog[97].dispatcher probeQueries 0
scalar FogSequentialForward.fog[97].dispatcher probeAnswers 0
scalar FogSequentialForward.fog[97].dispatcher droppedJobsSLA 0
scalar FogSequentialForward.fog[97].dispatcher jobs_class_1 3638
scalar FogSequentialForward.fog[97].dispatcher remoteJobs_class_1 3
scalar FogSequentialForward.fog[97].dispatcher localJobs_class_1 3635
scalar FogSequentialForward.fog[97].server[0] rho 0.56213706731796
scalar FogSequentialForward.fog[97].server[0] congestionRatio 0
scalar FogSequentialForward.fog[97].server[0] totalJobs 3635
scalar FogSequentialForward.fog[97].server[0] droppedJobsQueue 0
scalar FogSequentialForward.fog[97].server[0] droppedJobsTimout 0
scalar FogSequentialForward.fog[97].server[0] droppedJobsSLA 0
scalar FogSequentialForward.fog[97].server[0] droppedJobsTotal 0
scalar FogSequentialForward.fog[98].dispatcher localJobs 3567
scalar FogSequentialForward.fog[98].dispatcher internalJobs 3567
scalar FogSequentialForward.fog[98].dispatcher externalJobs 0
scalar FogSequentialForward.fog[98].dispatcher remoteJobs 0
scalar FogSequentialForward.fog[98].dispatcher probeQueries 0
scalar FogSequentialForward.fog[98].dispatcher probeAnswers 0
scalar FogSequentialForward.fog[98].dispatcher droppedJobsSLA 0
scalar FogSequentialForward.fog[98].dispatcher jobs_class_1 3567
scalar FogSequentialForward.fog[98].dispatcher localJobs_class_1 3567
scalar FogSequentialForward.fog[98].server[0] rho 0.55155330896378
scalar FogSequentialForward.fog[98].server[0] congestionRatio 0
scalar FogSequentialForward.fog[98].server[0] totalJobs 3567
scalar FogSequentialForward.fog[98].server[0] droppedJobsQueue 0
scalar FogSequentialForward.fog[98].server[0] droppedJobsTimout 0
scalar FogSequentialForward.fog[98].server[0] droppedJobsSLA 0
scalar FogSequentialForward.fog[98].server[0] droppedJobsTotal 0
scalar FogSequentialForward.fog[99].dispatcher localJobs 3597
scalar FogSequentialForward.fog[99].dispatcher internalJobs 3597
scalar FogSequentialForward.fog[99].dispatcher externalJobs 0
scalar FogSequentialForward.fog[99].dispatcher remoteJobs 0
scalar FogSequentialForward.fog[99].dispatcher probeQueries 0
scalar FogSequentialForward.fog[99].dispatcher probeAnswers 0
scalar FogSequentialForward.fog[99].dispatcher droppedJobsSLA 0
scalar FogSequentialForward.fog[99].dispatcher jobs_class_1 3597
scalar FogSequentialForward.fog[99].dispatcher localJobs_class_1 3597
scalar FogSequentialForward.fog[99].server[0] rho 0.55623638629913
scalar FogSequentialForward.fog[99].server[0] congestionRatio 0
scalar FogSequentialForward.fog[99].server[0] totalJobs 3597
scalar FogSequentialForward.fog[99].server[0] droppedJobsQueue 0
scalar FogSequentialForward.fog[99].server[0] droppedJobsTimout 0
scalar FogSequentialForward.fog[99].server[0] droppedJobsSLA 0
scalar FogSequentialForward.fog[99].server[0] droppedJobsTotal 0
scalar FogSequentialForward.sink avg_responseTime_1 2.716189319029
scalar FogSequentialForward.sink p90_responseTime_1 1.510205787443
scalar FogSequentialForward.sink med_responseTime_1 1.510205787443
scalar FogSequentialForward.sink avg_delayTime_1 0
scalar FogSequentialForward.sink p90_delayTime_1 0
scalar FogSequentialForward.sink med_delayTime_1 0
scalar FogSequentialForward.sink avg_queuingTime_1 1.0462550905445
scalar FogSequentialForward.sink p90_queuingTime_1 0
scalar FogSequentialForward.sink med_queuingTime_1 0
scalar FogSequentialForward.sink avg_serviceTime_1 1.6699305163836
scalar FogSequentialForward.sink p90_serviceTime_1 1.510205787443
scalar FogSequentialForward.sink med_serviceTime_1 1.510205787443
scalar FogSequentialForward.sink avg_balancerTime_1 3.7121010047124e-06
scalar FogSequentialForward.sink p90_balancerTime_1 0
scalar FogSequentialForward.sink med_balancerTime_1 0
scalar FogSequentialForward.sink avg_balancerCount_1 1.0002222814973
scalar FogSequentialForward.sink p90_balancerCount_1 1
scalar FogSequentialForward.sink med_balancerCount_1 1

