version 2
run Fog-mul_10-rho_09-thr_20-3-20190714-11:12:46-121829
attr configname Fog-mul_10-rho_09-thr_20
attr datetime 20190714-11:12:46
attr experiment Fog-mul_10-rho_09-thr_20
attr inifile FogSequentialForward.ini
attr iterationvars ""
attr iterationvarsf ""
attr measurement ""
attr network FogSequentialForward
attr processid 121829
attr repetition 3
attr replication #3
attr resultdir results
attr runnumber 3
attr seedset 3
param FogSequentialForward.proctimeMul 1.0
param FogSequentialForward.rho 0.9
param FogSequentialForward.fog[*].dispatcher.thr 20
param FogSequentialForward.nSources 100
param FogSequentialForward.rho 0.9
param FogSequentialForward.proctimeMul 1.0
param FogSequentialForward.source[*].appId 1
param FogSequentialForward.source[*].realTime true
param FogSequentialForward.source[*].multiHop true
param FogSequentialForward.fog[*].nServers 1
param FogSequentialForward.fog[*].dispatcher.fanOut 1
param FogSequentialForward.fog[*].server[*].timeSlice -1s
param FogSequentialForward.fog[*].server[*].timeout -1s
param FogSequentialForward.fog[*].server[*].capacity 20
param FogSequentialForward.fog[*].server[*].fifo true
param FogSequentialForward.fog[*].server[*].maxServiceTime -1s
param FogSequentialForward.fog[*].dispatcher.thr 1

scalar FogSequentialForward.fog[0].dispatcher localJobs 16199
scalar FogSequentialForward.fog[0].dispatcher internalJobs 16479
scalar FogSequentialForward.fog[0].dispatcher externalJobs 272912
scalar FogSequentialForward.fog[0].dispatcher remoteJobs 273192
scalar FogSequentialForward.fog[0].dispatcher probeQueries 0
scalar FogSequentialForward.fog[0].dispatcher probeAnswers 0
scalar FogSequentialForward.fog[0].dispatcher droppedJobsSLA 0
scalar FogSequentialForward.fog[0].dispatcher jobs_class_1 289391
scalar FogSequentialForward.fog[0].dispatcher remoteJobs_class_1 273192
scalar FogSequentialForward.fog[0].dispatcher localJobs_class_1 16199
scalar FogSequentialForward.fog[0].server[0] rho 1
scalar FogSequentialForward.fog[0].server[0] congestionRatio 0
scalar FogSequentialForward.fog[0].server[0] totalJobs 16199
scalar FogSequentialForward.fog[0].server[0] droppedJobsQueue 3294
scalar FogSequentialForward.fog[0].server[0] droppedJobsTimout 0
scalar FogSequentialForward.fog[0].server[0] droppedJobsSLA 10480
scalar FogSequentialForward.fog[0].server[0] droppedJobsTotal 13774
scalar FogSequentialForward.fog[1].dispatcher localJobs 16195
scalar FogSequentialForward.fog[1].dispatcher internalJobs 16464
scalar FogSequentialForward.fog[1].dispatcher externalJobs 273553
scalar FogSequentialForward.fog[1].dispatcher remoteJobs 273822
scalar FogSequentialForward.fog[1].dispatcher probeQueries 0
scalar FogSequentialForward.fog[1].dispatcher probeAnswers 0
scalar FogSequentialForward.fog[1].dispatcher droppedJobsSLA 0
scalar FogSequentialForward.fog[1].dispatcher jobs_class_1 290017
scalar FogSequentialForward.fog[1].dispatcher remoteJobs_class_1 273822
scalar FogSequentialForward.fog[1].dispatcher localJobs_class_1 16195
scalar FogSequentialForward.fog[1].server[0] rho 1
scalar FogSequentialForward.fog[1].server[0] congestionRatio 0
scalar FogSequentialForward.fog[1].server[0] totalJobs 16195
scalar FogSequentialForward.fog[1].server[0] droppedJobsQueue 3310
scalar FogSequentialForward.fog[1].server[0] droppedJobsTimout 0
scalar FogSequentialForward.fog[1].server[0] droppedJobsSLA 10520
scalar FogSequentialForward.fog[1].server[0] droppedJobsTotal 13830
scalar FogSequentialForward.fog[2].dispatcher localJobs 16208
scalar FogSequentialForward.fog[2].dispatcher internalJobs 16285
scalar FogSequentialForward.fog[2].dispatcher externalJobs 273799
scalar FogSequentialForward.fog[2].dispatcher remoteJobs 273876
scalar FogSequentialForward.fog[2].dispatcher probeQueries 0
scalar FogSequentialForward.fog[2].dispatcher probeAnswers 0
scalar FogSequentialForward.fog[2].dispatcher droppedJobsSLA 0
scalar FogSequentialForward.fog[2].dispatcher jobs_class_1 290084
scalar FogSequentialForward.fog[2].dispatcher remoteJobs_class_1 273876
scalar FogSequentialForward.fog[2].dispatcher localJobs_class_1 16208
scalar FogSequentialForward.fog[2].server[0] rho 1
scalar FogSequentialForward.fog[2].server[0] congestionRatio 0
scalar FogSequentialForward.fog[2].server[0] totalJobs 16208
scalar FogSequentialForward.fog[2].server[0] droppedJobsQueue 3321
scalar FogSequentialForward.fog[2].server[0] droppedJobsTimout 0
scalar FogSequentialForward.fog[2].server[0] droppedJobsSLA 10606
scalar FogSequentialForward.fog[2].server[0] droppedJobsTotal 13927
scalar FogSequentialForward.fog[3].dispatcher localJobs 16216
scalar FogSequentialForward.fog[3].dispatcher internalJobs 16381
scalar FogSequentialForward.fog[3].dispatcher externalJobs 273823
scalar FogSequentialForward.fog[3].dispatcher remoteJobs 273988
scalar FogSequentialForward.fog[3].dispatcher probeQueries 0
scalar FogSequentialForward.fog[3].dispatcher probeAnswers 0
scalar FogSequentialForward.fog[3].dispatcher droppedJobsSLA 0
scalar FogSequentialForward.fog[3].dispatcher jobs_class_1 290204
scalar FogSequentialForward.fog[3].dispatcher remoteJobs_class_1 273988
scalar FogSequentialForward.fog[3].dispatcher localJobs_class_1 16216
scalar FogSequentialForward.fog[3].server[0] rho 1
scalar FogSequentialForward.fog[3].server[0] congestionRatio 0
scalar FogSequentialForward.fog[3].server[0] totalJobs 16216
scalar FogSequentialForward.fog[3].server[0] droppedJobsQueue 3312
scalar FogSequentialForward.fog[3].server[0] droppedJobsTimout 0
scalar FogSequentialForward.fog[3].server[0] droppedJobsSLA 10524
scalar FogSequentialForward.fog[3].server[0] droppedJobsTotal 13836
scalar FogSequentialForward.fog[4].dispatcher localJobs 16211
scalar FogSequentialForward.fog[4].dispatcher internalJobs 16061
scalar FogSequentialForward.fog[4].dispatcher externalJobs 273729
scalar FogSequentialForward.fog[4].dispatcher remoteJobs 273579
scalar FogSequentialForward.fog[4].dispatcher probeQueries 0
scalar FogSequentialForward.fog[4].dispatcher probeAnswers 0
scalar FogSequentialForward.fog[4].dispatcher droppedJobsSLA 0
scalar FogSequentialForward.fog[4].dispatcher jobs_class_1 289790
scalar FogSequentialForward.fog[4].dispatcher remoteJobs_class_1 273579
scalar FogSequentialForward.fog[4].dispatcher localJobs_class_1 16211
scalar FogSequentialForward.fog[4].server[0] rho 1
scalar FogSequentialForward.fog[4].server[0] congestionRatio 0
scalar FogSequentialForward.fog[4].server[0] totalJobs 16211
scalar FogSequentialForward.fog[4].server[0] droppedJobsQueue 3298
scalar FogSequentialForward.fog[4].server[0] droppedJobsTimout 0
scalar FogSequentialForward.fog[4].server[0] droppedJobsSLA 10402
scalar FogSequentialForward.fog[4].server[0] droppedJobsTotal 13700
scalar FogSequentialForward.fog[5].dispatcher localJobs 16242
scalar FogSequentialForward.fog[5].dispatcher internalJobs 16242
scalar FogSequentialForward.fog[5].dispatcher externalJobs 273158
scalar FogSequentialForward.fog[5].dispatcher remoteJobs 273158
scalar FogSequentialForward.fog[5].dispatcher probeQueries 0
scalar FogSequentialForward.fog[5].dispatcher probeAnswers 0
scalar FogSequentialForward.fog[5].dispatcher droppedJobsSLA 0
scalar FogSequentialForward.fog[5].dispatcher jobs_class_1 289400
scalar FogSequentialForward.fog[5].dispatcher remoteJobs_class_1 273158
scalar FogSequentialForward.fog[5].dispatcher localJobs_class_1 16242
scalar FogSequentialForward.fog[5].server[0] rho 1
scalar FogSequentialForward.fog[5].server[0] congestionRatio 0
scalar FogSequentialForward.fog[5].server[0] totalJobs 16242
scalar FogSequentialForward.fog[5].server[0] droppedJobsQueue 3343
scalar FogSequentialForward.fog[5].server[0] droppedJobsTimout 0
scalar FogSequentialForward.fog[5].server[0] droppedJobsSLA 10493
scalar FogSequentialForward.fog[5].server[0] droppedJobsTotal 13836
scalar FogSequentialForward.fog[6].dispatcher localJobs 16199
scalar FogSequentialForward.fog[6].dispatcher internalJobs 16156
scalar FogSequentialForward.fog[6].dispatcher externalJobs 272933
scalar FogSequentialForward.fog[6].dispatcher remoteJobs 272890
scalar FogSequentialForward.fog[6].dispatcher probeQueries 0
scalar FogSequentialForward.fog[6].dispatcher probeAnswers 0
scalar FogSequentialForward.fog[6].dispatcher droppedJobsSLA 0
scalar FogSequentialForward.fog[6].dispatcher jobs_class_1 289089
scalar FogSequentialForward.fog[6].dispatcher remoteJobs_class_1 272890
scalar FogSequentialForward.fog[6].dispatcher localJobs_class_1 16199
scalar FogSequentialForward.fog[6].server[0] rho 1
scalar FogSequentialForward.fog[6].server[0] congestionRatio 0
scalar FogSequentialForward.fog[6].server[0] totalJobs 16199
scalar FogSequentialForward.fog[6].server[0] droppedJobsQueue 3297
scalar FogSequentialForward.fog[6].server[0] droppedJobsTimout 0
scalar FogSequentialForward.fog[6].server[0] droppedJobsSLA 10469
scalar FogSequentialForward.fog[6].server[0] droppedJobsTotal 13766
scalar FogSequentialForward.fog[7].dispatcher localJobs 16231
scalar FogSequentialForward.fog[7].dispatcher internalJobs 16101
scalar FogSequentialForward.fog[7].dispatcher externalJobs 274259
scalar FogSequentialForward.fog[7].dispatcher remoteJobs 274129
scalar FogSequentialForward.fog[7].dispatcher probeQueries 0
scalar FogSequentialForward.fog[7].dispatcher probeAnswers 0
scalar FogSequentialForward.fog[7].dispatcher droppedJobsSLA 0
scalar FogSequentialForward.fog[7].dispatcher jobs_class_1 290360
scalar FogSequentialForward.fog[7].dispatcher remoteJobs_class_1 274129
scalar FogSequentialForward.fog[7].dispatcher localJobs_class_1 16231
scalar FogSequentialForward.fog[7].server[0] rho 1
scalar FogSequentialForward.fog[7].server[0] congestionRatio 0
scalar FogSequentialForward.fog[7].server[0] totalJobs 16231
scalar FogSequentialForward.fog[7].server[0] droppedJobsQueue 3311
scalar FogSequentialForward.fog[7].server[0] droppedJobsTimout 0
scalar FogSequentialForward.fog[7].server[0] droppedJobsSLA 10459
scalar FogSequentialForward.fog[7].server[0] droppedJobsTotal 13770
scalar FogSequentialForward.fog[8].dispatcher localJobs 16208
scalar FogSequentialForward.fog[8].dispatcher internalJobs 16542
scalar FogSequentialForward.fog[8].dispatcher externalJobs 272801
scalar FogSequentialForward.fog[8].dispatcher remoteJobs 273135
scalar FogSequentialForward.fog[8].dispatcher probeQueries 0
scalar FogSequentialForward.fog[8].dispatcher probeAnswers 0
scalar FogSequentialForward.fog[8].dispatcher droppedJobsSLA 0
scalar FogSequentialForward.fog[8].dispatcher jobs_class_1 289343
scalar FogSequentialForward.fog[8].dispatcher remoteJobs_class_1 273135
scalar FogSequentialForward.fog[8].dispatcher localJobs_class_1 16208
scalar FogSequentialForward.fog[8].server[0] rho 1
scalar FogSequentialForward.fog[8].server[0] congestionRatio 0
scalar FogSequentialForward.fog[8].server[0] totalJobs 16208
scalar FogSequentialForward.fog[8].server[0] droppedJobsQueue 3311
scalar FogSequentialForward.fog[8].server[0] droppedJobsTimout 0
scalar FogSequentialForward.fog[8].server[0] droppedJobsSLA 10530
scalar FogSequentialForward.fog[8].server[0] droppedJobsTotal 13841
scalar FogSequentialForward.fog[9].dispatcher localJobs 16195
scalar FogSequentialForward.fog[9].dispatcher internalJobs 16449
scalar FogSequentialForward.fog[9].dispatcher externalJobs 274012
scalar FogSequentialForward.fog[9].dispatcher remoteJobs 274266
scalar FogSequentialForward.fog[9].dispatcher probeQueries 0
scalar FogSequentialForward.fog[9].dispatcher probeAnswers 0
scalar FogSequentialForward.fog[9].dispatcher droppedJobsSLA 0
scalar FogSequentialForward.fog[9].dispatcher jobs_class_1 290461
scalar FogSequentialForward.fog[9].dispatcher remoteJobs_class_1 274266
scalar FogSequentialForward.fog[9].dispatcher localJobs_class_1 16195
scalar FogSequentialForward.fog[9].server[0] rho 1
scalar FogSequentialForward.fog[9].server[0] congestionRatio 0
scalar FogSequentialForward.fog[9].server[0] totalJobs 16195
scalar FogSequentialForward.fog[9].server[0] droppedJobsQueue 3300
scalar FogSequentialForward.fog[9].server[0] droppedJobsTimout 0
scalar FogSequentialForward.fog[9].server[0] droppedJobsSLA 10485
scalar FogSequentialForward.fog[9].server[0] droppedJobsTotal 13785
scalar FogSequentialForward.fog[10].dispatcher localJobs 16191
scalar FogSequentialForward.fog[10].dispatcher internalJobs 16374
scalar FogSequentialForward.fog[10].dispatcher externalJobs 273027
scalar FogSequentialForward.fog[10].dispatcher remoteJobs 273210
scalar FogSequentialForward.fog[10].dispatcher probeQueries 0
scalar FogSequentialForward.fog[10].dispatcher probeAnswers 0
scalar FogSequentialForward.fog[10].dispatcher droppedJobsSLA 0
scalar FogSequentialForward.fog[10].dispatcher jobs_class_1 289401
scalar FogSequentialForward.fog[10].dispatcher remoteJobs_class_1 273210
scalar FogSequentialForward.fog[10].dispatcher localJobs_class_1 16191
scalar FogSequentialForward.fog[10].server[0] rho 1
scalar FogSequentialForward.fog[10].server[0] congestionRatio 0
scalar FogSequentialForward.fog[10].server[0] totalJobs 16191
scalar FogSequentialForward.fog[10].server[0] droppedJobsQueue 3284
scalar FogSequentialForward.fog[10].server[0] droppedJobsTimout 0
scalar FogSequentialForward.fog[10].server[0] droppedJobsSLA 10547
scalar FogSequentialForward.fog[10].server[0] droppedJobsTotal 13831
scalar FogSequentialForward.fog[11].dispatcher localJobs 16161
scalar FogSequentialForward.fog[11].dispatcher internalJobs 16236
scalar FogSequentialForward.fog[11].dispatcher externalJobs 272691
scalar FogSequentialForward.fog[11].dispatcher remoteJobs 272766
scalar FogSequentialForward.fog[11].dispatcher probeQueries 0
scalar FogSequentialForward.fog[11].dispatcher probeAnswers 0
scalar FogSequentialForward.fog[11].dispatcher droppedJobsSLA 0
scalar FogSequentialForward.fog[11].dispatcher jobs_class_1 288927
scalar FogSequentialForward.fog[11].dispatcher remoteJobs_class_1 272766
scalar FogSequentialForward.fog[11].dispatcher localJobs_class_1 16161
scalar FogSequentialForward.fog[11].server[0] rho 0.9999253153801
scalar FogSequentialForward.fog[11].server[0] congestionRatio 0
scalar FogSequentialForward.fog[11].server[0] totalJobs 16161
scalar FogSequentialForward.fog[11].server[0] droppedJobsQueue 3269
scalar FogSequentialForward.fog[11].server[0] droppedJobsTimout 0
scalar FogSequentialForward.fog[11].server[0] droppedJobsSLA 10478
scalar FogSequentialForward.fog[11].server[0] droppedJobsTotal 13747
scalar FogSequentialForward.fog[12].dispatcher localJobs 16251
scalar FogSequentialForward.fog[12].dispatcher internalJobs 16084
scalar FogSequentialForward.fog[12].dispatcher externalJobs 272859
scalar FogSequentialForward.fog[12].dispatcher remoteJobs 272692
scalar FogSequentialForward.fog[12].dispatcher probeQueries 0
scalar FogSequentialForward.fog[12].dispatcher probeAnswers 0
scalar FogSequentialForward.fog[12].dispatcher droppedJobsSLA 0
scalar FogSequentialForward.fog[12].dispatcher jobs_class_1 288943
scalar FogSequentialForward.fog[12].dispatcher remoteJobs_class_1 272692
scalar FogSequentialForward.fog[12].dispatcher localJobs_class_1 16251
scalar FogSequentialForward.fog[12].server[0] rho 1
scalar FogSequentialForward.fog[12].server[0] congestionRatio 0
scalar FogSequentialForward.fog[12].server[0] totalJobs 16251
scalar FogSequentialForward.fog[12].server[0] droppedJobsQueue 3330
scalar FogSequentialForward.fog[12].server[0] droppedJobsTimout 0
scalar FogSequentialForward.fog[12].server[0] droppedJobsSLA 10519
scalar FogSequentialForward.fog[12].server[0] droppedJobsTotal 13849
scalar FogSequentialForward.fog[13].dispatcher localJobs 16187
scalar FogSequentialForward.fog[13].dispatcher internalJobs 16167
scalar FogSequentialForward.fog[13].dispatcher externalJobs 273489
scalar FogSequentialForward.fog[13].dispatcher remoteJobs 273469
scalar FogSequentialForward.fog[13].dispatcher probeQueries 0
scalar FogSequentialForward.fog[13].dispatcher probeAnswers 0
scalar FogSequentialForward.fog[13].dispatcher droppedJobsSLA 0
scalar FogSequentialForward.fog[13].dispatcher jobs_class_1 289656
scalar FogSequentialForward.fog[13].dispatcher remoteJobs_class_1 273469
scalar FogSequentialForward.fog[13].dispatcher localJobs_class_1 16187
scalar FogSequentialForward.fog[13].server[0] rho 1
scalar FogSequentialForward.fog[13].server[0] congestionRatio 0
scalar FogSequentialForward.fog[13].server[0] totalJobs 16187
scalar FogSequentialForward.fog[13].server[0] droppedJobsQueue 3281
scalar FogSequentialForward.fog[13].server[0] droppedJobsTimout 0
scalar FogSequentialForward.fog[13].server[0] droppedJobsSLA 10466
scalar FogSequentialForward.fog[13].server[0] droppedJobsTotal 13747
scalar FogSequentialForward.fog[14].dispatcher localJobs 16187
scalar FogSequentialForward.fog[14].dispatcher internalJobs 16393
scalar FogSequentialForward.fog[14].dispatcher externalJobs 274195
scalar FogSequentialForward.fog[14].dispatcher remoteJobs 274401
scalar FogSequentialForward.fog[14].dispatcher probeQueries 0
scalar FogSequentialForward.fog[14].dispatcher probeAnswers 0
scalar FogSequentialForward.fog[14].dispatcher droppedJobsSLA 0
scalar FogSequentialForward.fog[14].dispatcher jobs_class_1 290588
scalar FogSequentialForward.fog[14].dispatcher remoteJobs_class_1 274401
scalar FogSequentialForward.fog[14].dispatcher localJobs_class_1 16187
scalar FogSequentialForward.fog[14].server[0] rho 1
scalar FogSequentialForward.fog[14].server[0] congestionRatio 0
scalar FogSequentialForward.fog[14].server[0] totalJobs 16187
scalar FogSequentialForward.fog[14].server[0] droppedJobsQueue 3293
scalar FogSequentialForward.fog[14].server[0] droppedJobsTimout 0
scalar FogSequentialForward.fog[14].server[0] droppedJobsSLA 10514
scalar FogSequentialForward.fog[14].server[0] droppedJobsTotal 13807
scalar FogSequentialForward.fog[15].dispatcher localJobs 16197
scalar FogSequentialForward.fog[15].dispatcher internalJobs 16171
scalar FogSequentialForward.fog[15].dispatcher externalJobs 273215
scalar FogSequentialForward.fog[15].dispatcher remoteJobs 273189
scalar FogSequentialForward.fog[15].dispatcher probeQueries 0
scalar FogSequentialForward.fog[15].dispatcher probeAnswers 0
scalar FogSequentialForward.fog[15].dispatcher droppedJobsSLA 0
scalar FogSequentialForward.fog[15].dispatcher jobs_class_1 289386
scalar FogSequentialForward.fog[15].dispatcher remoteJobs_class_1 273189
scalar FogSequentialForward.fog[15].dispatcher localJobs_class_1 16197
scalar FogSequentialForward.fog[15].server[0] rho 1
scalar FogSequentialForward.fog[15].server[0] congestionRatio 0
scalar FogSequentialForward.fog[15].server[0] totalJobs 16197
scalar FogSequentialForward.fog[15].server[0] droppedJobsQueue 3299
scalar FogSequentialForward.fog[15].server[0] droppedJobsTimout 0
scalar FogSequentialForward.fog[15].server[0] droppedJobsSLA 10463
scalar FogSequentialForward.fog[15].server[0] droppedJobsTotal 13762
scalar FogSequentialForward.fog[16].dispatcher localJobs 16233
scalar FogSequentialForward.fog[16].dispatcher internalJobs 16245
scalar FogSequentialForward.fog[16].dispatcher externalJobs 272301
scalar FogSequentialForward.fog[16].dispatcher remoteJobs 272313
scalar FogSequentialForward.fog[16].dispatcher probeQueries 0
scalar FogSequentialForward.fog[16].dispatcher probeAnswers 0
scalar FogSequentialForward.fog[16].dispatcher droppedJobsSLA 0
scalar FogSequentialForward.fog[16].dispatcher jobs_class_1 288546
scalar FogSequentialForward.fog[16].dispatcher remoteJobs_class_1 272313
scalar FogSequentialForward.fog[16].dispatcher localJobs_class_1 16233
scalar FogSequentialForward.fog[16].server[0] rho 1
scalar FogSequentialForward.fog[16].server[0] congestionRatio 0
scalar FogSequentialForward.fog[16].server[0] totalJobs 16233
scalar FogSequentialForward.fog[16].server[0] droppedJobsQueue 3334
scalar FogSequentialForward.fog[16].server[0] droppedJobsTimout 0
scalar FogSequentialForward.fog[16].server[0] droppedJobsSLA 10536
scalar FogSequentialForward.fog[16].server[0] droppedJobsTotal 13870
scalar FogSequentialForward.fog[17].dispatcher localJobs 16156
scalar FogSequentialForward.fog[17].dispatcher internalJobs 16039
scalar FogSequentialForward.fog[17].dispatcher externalJobs 272038
scalar FogSequentialForward.fog[17].dispatcher remoteJobs 271921
scalar FogSequentialForward.fog[17].dispatcher probeQueries 0
scalar FogSequentialForward.fog[17].dispatcher probeAnswers 0
scalar FogSequentialForward.fog[17].dispatcher droppedJobsSLA 0
scalar FogSequentialForward.fog[17].dispatcher jobs_class_1 288077
scalar FogSequentialForward.fog[17].dispatcher remoteJobs_class_1 271921
scalar FogSequentialForward.fog[17].dispatcher localJobs_class_1 16156
scalar FogSequentialForward.fog[17].server[0] rho 1
scalar FogSequentialForward.fog[17].server[0] congestionRatio 0
scalar FogSequentialForward.fog[17].server[0] totalJobs 16156
scalar FogSequentialForward.fog[17].server[0] droppedJobsQueue 3252
scalar FogSequentialForward.fog[17].server[0] droppedJobsTimout 0
scalar FogSequentialForward.fog[17].server[0] droppedJobsSLA 10459
scalar FogSequentialForward.fog[17].server[0] droppedJobsTotal 13711
scalar FogSequentialForward.fog[18].dispatcher localJobs 16178
scalar FogSequentialForward.fog[18].dispatcher internalJobs 15931
scalar FogSequentialForward.fog[18].dispatcher externalJobs 272686
scalar FogSequentialForward.fog[18].dispatcher remoteJobs 272439
scalar FogSequentialForward.fog[18].dispatcher probeQueries 0
scalar FogSequentialForward.fog[18].dispatcher probeAnswers 0
scalar FogSequentialForward.fog[18].dispatcher droppedJobsSLA 0
scalar FogSequentialForward.fog[18].dispatcher jobs_class_1 288617
scalar FogSequentialForward.fog[18].dispatcher remoteJobs_class_1 272439
scalar FogSequentialForward.fog[18].dispatcher localJobs_class_1 16178
scalar FogSequentialForward.fog[18].server[0] rho 1
scalar FogSequentialForward.fog[18].server[0] congestionRatio 0
scalar FogSequentialForward.fog[18].server[0] totalJobs 16178
scalar FogSequentialForward.fog[18].server[0] droppedJobsQueue 3273
scalar FogSequentialForward.fog[18].server[0] droppedJobsTimout 0
scalar FogSequentialForward.fog[18].server[0] droppedJobsSLA 10424
scalar FogSequentialForward.fog[18].server[0] droppedJobsTotal 13697
scalar FogSequentialForward.fog[19].dispatcher localJobs 16187
scalar FogSequentialForward.fog[19].dispatcher internalJobs 16358
scalar FogSequentialForward.fog[19].dispatcher externalJobs 273606
scalar FogSequentialForward.fog[19].dispatcher remoteJobs 273777
scalar FogSequentialForward.fog[19].dispatcher probeQueries 0
scalar FogSequentialForward.fog[19].dispatcher probeAnswers 0
scalar FogSequentialForward.fog[19].dispatcher droppedJobsSLA 0
scalar FogSequentialForward.fog[19].dispatcher jobs_class_1 289964
scalar FogSequentialForward.fog[19].dispatcher remoteJobs_class_1 273777
scalar FogSequentialForward.fog[19].dispatcher localJobs_class_1 16187
scalar FogSequentialForward.fog[19].server[0] rho 1
scalar FogSequentialForward.fog[19].server[0] congestionRatio 0
scalar FogSequentialForward.fog[19].server[0] totalJobs 16187
scalar FogSequentialForward.fog[19].server[0] droppedJobsQueue 3290
scalar FogSequentialForward.fog[19].server[0] droppedJobsTimout 0
scalar FogSequentialForward.fog[19].server[0] droppedJobsSLA 10503
scalar FogSequentialForward.fog[19].server[0] droppedJobsTotal 13793
scalar FogSequentialForward.fog[20].dispatcher localJobs 16281
scalar FogSequentialForward.fog[20].dispatcher internalJobs 16045
scalar FogSequentialForward.fog[20].dispatcher externalJobs 272623
scalar FogSequentialForward.fog[20].dispatcher remoteJobs 272387
scalar FogSequentialForward.fog[20].dispatcher probeQueries 0
scalar FogSequentialForward.fog[20].dispatcher probeAnswers 0
scalar FogSequentialForward.fog[20].dispatcher droppedJobsSLA 0
scalar FogSequentialForward.fog[20].dispatcher jobs_class_1 288668
scalar FogSequentialForward.fog[20].dispatcher remoteJobs_class_1 272387
scalar FogSequentialForward.fog[20].dispatcher localJobs_class_1 16281
scalar FogSequentialForward.fog[20].server[0] rho 1
scalar FogSequentialForward.fog[20].server[0] congestionRatio 0
scalar FogSequentialForward.fog[20].server[0] totalJobs 16281
scalar FogSequentialForward.fog[20].server[0] droppedJobsQueue 3359
scalar FogSequentialForward.fog[20].server[0] droppedJobsTimout 0
scalar FogSequentialForward.fog[20].server[0] droppedJobsSLA 10571
scalar FogSequentialForward.fog[20].server[0] droppedJobsTotal 13930
scalar FogSequentialForward.fog[21].dispatcher localJobs 16253
scalar FogSequentialForward.fog[21].dispatcher internalJobs 16279
scalar FogSequentialForward.fog[21].dispatcher externalJobs 273233
scalar FogSequentialForward.fog[21].dispatcher remoteJobs 273259
scalar FogSequentialForward.fog[21].dispatcher probeQueries 0
scalar FogSequentialForward.fog[21].dispatcher probeAnswers 0
scalar FogSequentialForward.fog[21].dispatcher droppedJobsSLA 0
scalar FogSequentialForward.fog[21].dispatcher jobs_class_1 289512
scalar FogSequentialForward.fog[21].dispatcher remoteJobs_class_1 273259
scalar FogSequentialForward.fog[21].dispatcher localJobs_class_1 16253
scalar FogSequentialForward.fog[21].server[0] rho 1
scalar FogSequentialForward.fog[21].server[0] congestionRatio 0
scalar FogSequentialForward.fog[21].server[0] totalJobs 16253
scalar FogSequentialForward.fog[21].server[0] droppedJobsQueue 3355
scalar FogSequentialForward.fog[21].server[0] droppedJobsTimout 0
scalar FogSequentialForward.fog[21].server[0] droppedJobsSLA 10483
scalar FogSequentialForward.fog[21].server[0] droppedJobsTotal 13838
scalar FogSequentialForward.fog[22].dispatcher localJobs 16210
scalar FogSequentialForward.fog[22].dispatcher internalJobs 16285
scalar FogSequentialForward.fog[22].dispatcher externalJobs 273269
scalar FogSequentialForward.fog[22].dispatcher remoteJobs 273344
scalar FogSequentialForward.fog[22].dispatcher probeQueries 0
scalar FogSequentialForward.fog[22].dispatcher probeAnswers 0
scalar FogSequentialForward.fog[22].dispatcher droppedJobsSLA 0
scalar FogSequentialForward.fog[22].dispatcher jobs_class_1 289554
scalar FogSequentialForward.fog[22].dispatcher remoteJobs_class_1 273344
scalar FogSequentialForward.fog[22].dispatcher localJobs_class_1 16210
scalar FogSequentialForward.fog[22].server[0] rho 1
scalar FogSequentialForward.fog[22].server[0] congestionRatio 0
scalar FogSequentialForward.fog[22].server[0] totalJobs 16210
scalar FogSequentialForward.fog[22].server[0] droppedJobsQueue 3314
scalar FogSequentialForward.fog[22].server[0] droppedJobsTimout 0
scalar FogSequentialForward.fog[22].server[0] droppedJobsSLA 10541
scalar FogSequentialForward.fog[22].server[0] droppedJobsTotal 13855
scalar FogSequentialForward.fog[23].dispatcher localJobs 16214
scalar FogSequentialForward.fog[23].dispatcher internalJobs 16350
scalar FogSequentialForward.fog[23].dispatcher externalJobs 272502
scalar FogSequentialForward.fog[23].dispatcher remoteJobs 272638
scalar FogSequentialForward.fog[23].dispatcher probeQueries 0
scalar FogSequentialForward.fog[23].dispatcher probeAnswers 0
scalar FogSequentialForward.fog[23].dispatcher droppedJobsSLA 0
scalar FogSequentialForward.fog[23].dispatcher jobs_class_1 288852
scalar FogSequentialForward.fog[23].dispatcher remoteJobs_class_1 272638
scalar FogSequentialForward.fog[23].dispatcher localJobs_class_1 16214
scalar FogSequentialForward.fog[23].server[0] rho 1
scalar FogSequentialForward.fog[23].server[0] congestionRatio 0
scalar FogSequentialForward.fog[23].server[0] totalJobs 16214
scalar FogSequentialForward.fog[23].server[0] droppedJobsQueue 3319
scalar FogSequentialForward.fog[23].server[0] droppedJobsTimout 0
scalar FogSequentialForward.fog[23].server[0] droppedJobsSLA 10553
scalar FogSequentialForward.fog[23].server[0] droppedJobsTotal 13872
scalar FogSequentialForward.fog[24].dispatcher localJobs 16199
scalar FogSequentialForward.fog[24].dispatcher internalJobs 16175
scalar FogSequentialForward.fog[24].dispatcher externalJobs 273239
scalar FogSequentialForward.fog[24].dispatcher remoteJobs 273215
scalar FogSequentialForward.fog[24].dispatcher probeQueries 0
scalar FogSequentialForward.fog[24].dispatcher probeAnswers 0
scalar FogSequentialForward.fog[24].dispatcher droppedJobsSLA 0
scalar FogSequentialForward.fog[24].dispatcher jobs_class_1 289414
scalar FogSequentialForward.fog[24].dispatcher remoteJobs_class_1 273215
scalar FogSequentialForward.fog[24].dispatcher localJobs_class_1 16199
scalar FogSequentialForward.fog[24].server[0] rho 1
scalar FogSequentialForward.fog[24].server[0] congestionRatio 0
scalar FogSequentialForward.fog[24].server[0] totalJobs 16199
scalar FogSequentialForward.fog[24].server[0] droppedJobsQueue 3299
scalar FogSequentialForward.fog[24].server[0] droppedJobsTimout 0
scalar FogSequentialForward.fog[24].server[0] droppedJobsSLA 10517
scalar FogSequentialForward.fog[24].server[0] droppedJobsTotal 13816
scalar FogSequentialForward.fog[25].dispatcher localJobs 16227
scalar FogSequentialForward.fog[25].dispatcher internalJobs 16221
scalar FogSequentialForward.fog[25].dispatcher externalJobs 272886
scalar FogSequentialForward.fog[25].dispatcher remoteJobs 272880
scalar FogSequentialForward.fog[25].dispatcher probeQueries 0
scalar FogSequentialForward.fog[25].dispatcher probeAnswers 0
scalar FogSequentialForward.fog[25].dispatcher droppedJobsSLA 0
scalar FogSequentialForward.fog[25].dispatcher jobs_class_1 289107
scalar FogSequentialForward.fog[25].dispatcher remoteJobs_class_1 272880
scalar FogSequentialForward.fog[25].dispatcher localJobs_class_1 16227
scalar FogSequentialForward.fog[25].server[0] rho 1
scalar FogSequentialForward.fog[25].server[0] congestionRatio 0
scalar FogSequentialForward.fog[25].server[0] totalJobs 16227
scalar FogSequentialForward.fog[25].server[0] droppedJobsQueue 3323
scalar FogSequentialForward.fog[25].server[0] droppedJobsTimout 0
scalar FogSequentialForward.fog[25].server[0] droppedJobsSLA 10566
scalar FogSequentialForward.fog[25].server[0] droppedJobsTotal 13889
scalar FogSequentialForward.fog[26].dispatcher localJobs 16210
scalar FogSequentialForward.fog[26].dispatcher internalJobs 16271
scalar FogSequentialForward.fog[26].dispatcher externalJobs 273031
scalar FogSequentialForward.fog[26].dispatcher remoteJobs 273092
scalar FogSequentialForward.fog[26].dispatcher probeQueries 0
scalar FogSequentialForward.fog[26].dispatcher probeAnswers 0
scalar FogSequentialForward.fog[26].dispatcher droppedJobsSLA 0
scalar FogSequentialForward.fog[26].dispatcher jobs_class_1 289302
scalar FogSequentialForward.fog[26].dispatcher remoteJobs_class_1 273092
scalar FogSequentialForward.fog[26].dispatcher localJobs_class_1 16210
scalar FogSequentialForward.fog[26].server[0] rho 1
scalar FogSequentialForward.fog[26].server[0] congestionRatio 0
scalar FogSequentialForward.fog[26].server[0] totalJobs 16210
scalar FogSequentialForward.fog[26].server[0] droppedJobsQueue 3304
scalar FogSequentialForward.fog[26].server[0] droppedJobsTimout 0
scalar FogSequentialForward.fog[26].server[0] droppedJobsSLA 10489
scalar FogSequentialForward.fog[26].server[0] droppedJobsTotal 13793
scalar FogSequentialForward.fog[27].dispatcher localJobs 16221
scalar FogSequentialForward.fog[27].dispatcher internalJobs 16391
scalar FogSequentialForward.fog[27].dispatcher externalJobs 273764
scalar FogSequentialForward.fog[27].dispatcher remoteJobs 273934
scalar FogSequentialForward.fog[27].dispatcher probeQueries 0
scalar FogSequentialForward.fog[27].dispatcher probeAnswers 0
scalar FogSequentialForward.fog[27].dispatcher droppedJobsSLA 0
scalar FogSequentialForward.fog[27].dispatcher jobs_class_1 290155
scalar FogSequentialForward.fog[27].dispatcher remoteJobs_class_1 273934
scalar FogSequentialForward.fog[27].dispatcher localJobs_class_1 16221
scalar FogSequentialForward.fog[27].server[0] rho 1
scalar FogSequentialForward.fog[27].server[0] congestionRatio 0
scalar FogSequentialForward.fog[27].server[0] totalJobs 16221
scalar FogSequentialForward.fog[27].server[0] droppedJobsQueue 3318
scalar FogSequentialForward.fog[27].server[0] droppedJobsTimout 0
scalar FogSequentialForward.fog[27].server[0] droppedJobsSLA 10501
scalar FogSequentialForward.fog[27].server[0] droppedJobsTotal 13819
scalar FogSequentialForward.fog[28].dispatcher localJobs 16206
scalar FogSequentialForward.fog[28].dispatcher internalJobs 16444
scalar FogSequentialForward.fog[28].dispatcher externalJobs 274436
scalar FogSequentialForward.fog[28].dispatcher remoteJobs 274674
scalar FogSequentialForward.fog[28].dispatcher probeQueries 0
scalar FogSequentialForward.fog[28].dispatcher probeAnswers 0
scalar FogSequentialForward.fog[28].dispatcher droppedJobsSLA 0
scalar FogSequentialForward.fog[28].dispatcher jobs_class_1 290880
scalar FogSequentialForward.fog[28].dispatcher remoteJobs_class_1 274674
scalar FogSequentialForward.fog[28].dispatcher localJobs_class_1 16206
scalar FogSequentialForward.fog[28].server[0] rho 1
scalar FogSequentialForward.fog[28].server[0] congestionRatio 0
scalar FogSequentialForward.fog[28].server[0] totalJobs 16206
scalar FogSequentialForward.fog[28].server[0] droppedJobsQueue 3308
scalar FogSequentialForward.fog[28].server[0] droppedJobsTimout 0
scalar FogSequentialForward.fog[28].server[0] droppedJobsSLA 10509
scalar FogSequentialForward.fog[28].server[0] droppedJobsTotal 13817
scalar FogSequentialForward.fog[29].dispatcher localJobs 16186
scalar FogSequentialForward.fog[29].dispatcher internalJobs 15969
scalar FogSequentialForward.fog[29].dispatcher externalJobs 272573
scalar FogSequentialForward.fog[29].dispatcher remoteJobs 272356
scalar FogSequentialForward.fog[29].dispatcher probeQueries 0
scalar FogSequentialForward.fog[29].dispatcher probeAnswers 0
scalar FogSequentialForward.fog[29].dispatcher droppedJobsSLA 0
scalar FogSequentialForward.fog[29].dispatcher jobs_class_1 288542
scalar FogSequentialForward.fog[29].dispatcher remoteJobs_class_1 272356
scalar FogSequentialForward.fog[29].dispatcher localJobs_class_1 16186
scalar FogSequentialForward.fog[29].server[0] rho 1
scalar FogSequentialForward.fog[29].server[0] congestionRatio 0
scalar FogSequentialForward.fog[29].server[0] totalJobs 16186
scalar FogSequentialForward.fog[29].server[0] droppedJobsQueue 3289
scalar FogSequentialForward.fog[29].server[0] droppedJobsTimout 0
scalar FogSequentialForward.fog[29].server[0] droppedJobsSLA 10497
scalar FogSequentialForward.fog[29].server[0] droppedJobsTotal 13786
scalar FogSequentialForward.fog[30].dispatcher localJobs 16234
scalar FogSequentialForward.fog[30].dispatcher internalJobs 16039
scalar FogSequentialForward.fog[30].dispatcher externalJobs 273954
scalar FogSequentialForward.fog[30].dispatcher remoteJobs 273759
scalar FogSequentialForward.fog[30].dispatcher probeQueries 0
scalar FogSequentialForward.fog[30].dispatcher probeAnswers 0
scalar FogSequentialForward.fog[30].dispatcher droppedJobsSLA 0
scalar FogSequentialForward.fog[30].dispatcher jobs_class_1 289993
scalar FogSequentialForward.fog[30].dispatcher remoteJobs_class_1 273759
scalar FogSequentialForward.fog[30].dispatcher localJobs_class_1 16234
scalar FogSequentialForward.fog[30].server[0] rho 1
scalar FogSequentialForward.fog[30].server[0] congestionRatio 0
scalar FogSequentialForward.fog[30].server[0] totalJobs 16234
scalar FogSequentialForward.fog[30].server[0] droppedJobsQueue 3344
scalar FogSequentialForward.fog[30].server[0] droppedJobsTimout 0
scalar FogSequentialForward.fog[30].server[0] droppedJobsSLA 10632
scalar FogSequentialForward.fog[30].server[0] droppedJobsTotal 13976
scalar FogSequentialForward.fog[31].dispatcher localJobs 16225
scalar FogSequentialForward.fog[31].dispatcher internalJobs 16407
scalar FogSequentialForward.fog[31].dispatcher externalJobs 273019
scalar FogSequentialForward.fog[31].dispatcher remoteJobs 273201
scalar FogSequentialForward.fog[31].dispatcher probeQueries 0
scalar FogSequentialForward.fog[31].dispatcher probeAnswers 0
scalar FogSequentialForward.fog[31].dispatcher droppedJobsSLA 0
scalar FogSequentialForward.fog[31].dispatcher jobs_class_1 289426
scalar FogSequentialForward.fog[31].dispatcher remoteJobs_class_1 273201
scalar FogSequentialForward.fog[31].dispatcher localJobs_class_1 16225
scalar FogSequentialForward.fog[31].server[0] rho 1
scalar FogSequentialForward.fog[31].server[0] congestionRatio 0
scalar FogSequentialForward.fog[31].server[0] totalJobs 16225
scalar FogSequentialForward.fog[31].server[0] droppedJobsQueue 3329
scalar FogSequentialForward.fog[31].server[0] droppedJobsTimout 0
scalar FogSequentialForward.fog[31].server[0] droppedJobsSLA 10513
scalar FogSequentialForward.fog[31].server[0] droppedJobsTotal 13842
scalar FogSequentialForward.fog[32].dispatcher localJobs 16237
scalar FogSequentialForward.fog[32].dispatcher internalJobs 16125
scalar FogSequentialForward.fog[32].dispatcher externalJobs 272626
scalar FogSequentialForward.fog[32].dispatcher remoteJobs 272514
scalar FogSequentialForward.fog[32].dispatcher probeQueries 0
scalar FogSequentialForward.fog[32].dispatcher probeAnswers 0
scalar FogSequentialForward.fog[32].dispatcher droppedJobsSLA 0
scalar FogSequentialForward.fog[32].dispatcher jobs_class_1 288751
scalar FogSequentialForward.fog[32].dispatcher remoteJobs_class_1 272514
scalar FogSequentialForward.fog[32].dispatcher localJobs_class_1 16237
scalar FogSequentialForward.fog[32].server[0] rho 1
scalar FogSequentialForward.fog[32].server[0] congestionRatio 0
scalar FogSequentialForward.fog[32].server[0] totalJobs 16237
scalar FogSequentialForward.fog[32].server[0] droppedJobsQueue 3328
scalar FogSequentialForward.fog[32].server[0] droppedJobsTimout 0
scalar FogSequentialForward.fog[32].server[0] droppedJobsSLA 10492
scalar FogSequentialForward.fog[32].server[0] droppedJobsTotal 13820
scalar FogSequentialForward.fog[33].dispatcher localJobs 16219
scalar FogSequentialForward.fog[33].dispatcher internalJobs 16086
scalar FogSequentialForward.fog[33].dispatcher externalJobs 273490
scalar FogSequentialForward.fog[33].dispatcher remoteJobs 273357
scalar FogSequentialForward.fog[33].dispatcher probeQueries 0
scalar FogSequentialForward.fog[33].dispatcher probeAnswers 0
scalar FogSequentialForward.fog[33].dispatcher droppedJobsSLA 0
scalar FogSequentialForward.fog[33].dispatcher jobs_class_1 289576
scalar FogSequentialForward.fog[33].dispatcher remoteJobs_class_1 273357
scalar FogSequentialForward.fog[33].dispatcher localJobs_class_1 16219
scalar FogSequentialForward.fog[33].server[0] rho 1
scalar FogSequentialForward.fog[33].server[0] congestionRatio 0
scalar FogSequentialForward.fog[33].server[0] totalJobs 16219
scalar FogSequentialForward.fog[33].server[0] droppedJobsQueue 3302
scalar FogSequentialForward.fog[33].server[0] droppedJobsTimout 0
scalar FogSequentialForward.fog[33].server[0] droppedJobsSLA 10455
scalar FogSequentialForward.fog[33].server[0] droppedJobsTotal 13757
scalar FogSequentialForward.fog[34].dispatcher localJobs 16221
scalar FogSequentialForward.fog[34].dispatcher internalJobs 16324
scalar FogSequentialForward.fog[34].dispatcher externalJobs 273909
scalar FogSequentialForward.fog[34].dispatcher remoteJobs 274012
scalar FogSequentialForward.fog[34].dispatcher probeQueries 0
scalar FogSequentialForward.fog[34].dispatcher probeAnswers 0
scalar FogSequentialForward.fog[34].dispatcher droppedJobsSLA 0
scalar FogSequentialForward.fog[34].dispatcher jobs_class_1 290233
scalar FogSequentialForward.fog[34].dispatcher remoteJobs_class_1 274012
scalar FogSequentialForward.fog[34].dispatcher localJobs_class_1 16221
scalar FogSequentialForward.fog[34].server[0] rho 1
scalar FogSequentialForward.fog[34].server[0] congestionRatio 0
scalar FogSequentialForward.fog[34].server[0] totalJobs 16221
scalar FogSequentialForward.fog[34].server[0] droppedJobsQueue 3305
scalar FogSequentialForward.fog[34].server[0] droppedJobsTimout 0
scalar FogSequentialForward.fog[34].server[0] droppedJobsSLA 10472
scalar FogSequentialForward.fog[34].server[0] droppedJobsTotal 13777
scalar FogSequentialForward.fog[35].dispatcher localJobs 16216
scalar FogSequentialForward.fog[35].dispatcher internalJobs 16098
scalar FogSequentialForward.fog[35].dispatcher externalJobs 272886
scalar FogSequentialForward.fog[35].dispatcher remoteJobs 272768
scalar FogSequentialForward.fog[35].dispatcher probeQueries 0
scalar FogSequentialForward.fog[35].dispatcher probeAnswers 0
scalar FogSequentialForward.fog[35].dispatcher droppedJobsSLA 0
scalar FogSequentialForward.fog[35].dispatcher jobs_class_1 288984
scalar FogSequentialForward.fog[35].dispatcher remoteJobs_class_1 272768
scalar FogSequentialForward.fog[35].dispatcher localJobs_class_1 16216
scalar FogSequentialForward.fog[35].server[0] rho 1
scalar FogSequentialForward.fog[35].server[0] congestionRatio 0
scalar FogSequentialForward.fog[35].server[0] totalJobs 16216
scalar FogSequentialForward.fog[35].server[0] droppedJobsQueue 3318
scalar FogSequentialForward.fog[35].server[0] droppedJobsTimout 0
scalar FogSequentialForward.fog[35].server[0] droppedJobsSLA 10560
scalar FogSequentialForward.fog[35].server[0] droppedJobsTotal 13878
scalar FogSequentialForward.fog[36].dispatcher localJobs 16209
scalar FogSequentialForward.fog[36].dispatcher internalJobs 16175
scalar FogSequentialForward.fog[36].dispatcher externalJobs 272560
scalar FogSequentialForward.fog[36].dispatcher remoteJobs 272526
scalar FogSequentialForward.fog[36].dispatcher probeQueries 0
scalar FogSequentialForward.fog[36].dispatcher probeAnswers 0
scalar FogSequentialForward.fog[36].dispatcher droppedJobsSLA 0
scalar FogSequentialForward.fog[36].dispatcher jobs_class_1 288735
scalar FogSequentialForward.fog[36].dispatcher remoteJobs_class_1 272526
scalar FogSequentialForward.fog[36].dispatcher localJobs_class_1 16209
scalar FogSequentialForward.fog[36].server[0] rho 1
scalar FogSequentialForward.fog[36].server[0] congestionRatio 0
scalar FogSequentialForward.fog[36].server[0] totalJobs 16209
scalar FogSequentialForward.fog[36].server[0] droppedJobsQueue 3305
scalar FogSequentialForward.fog[36].server[0] droppedJobsTimout 0
scalar FogSequentialForward.fog[36].server[0] droppedJobsSLA 10523
scalar FogSequentialForward.fog[36].server[0] droppedJobsTotal 13828
scalar FogSequentialForward.fog[37].dispatcher localJobs 16228
scalar FogSequentialForward.fog[37].dispatcher internalJobs 16193
scalar FogSequentialForward.fog[37].dispatcher externalJobs 274101
scalar FogSequentialForward.fog[37].dispatcher remoteJobs 274066
scalar FogSequentialForward.fog[37].dispatcher probeQueries 0
scalar FogSequentialForward.fog[37].dispatcher probeAnswers 0
scalar FogSequentialForward.fog[37].dispatcher droppedJobsSLA 0
scalar FogSequentialForward.fog[37].dispatcher jobs_class_1 290294
scalar FogSequentialForward.fog[37].dispatcher remoteJobs_class_1 274066
scalar FogSequentialForward.fog[37].dispatcher localJobs_class_1 16228
scalar FogSequentialForward.fog[37].server[0] rho 1
scalar FogSequentialForward.fog[37].server[0] congestionRatio 0
scalar FogSequentialForward.fog[37].server[0] totalJobs 16228
scalar FogSequentialForward.fog[37].server[0] droppedJobsQueue 3326
scalar FogSequentialForward.fog[37].server[0] droppedJobsTimout 0
scalar FogSequentialForward.fog[37].server[0] droppedJobsSLA 10557
scalar FogSequentialForward.fog[37].server[0] droppedJobsTotal 13883
scalar FogSequentialForward.fog[38].dispatcher localJobs 16190
scalar FogSequentialForward.fog[38].dispatcher internalJobs 16340
scalar FogSequentialForward.fog[38].dispatcher externalJobs 273452
scalar FogSequentialForward.fog[38].dispatcher remoteJobs 273602
scalar FogSequentialForward.fog[38].dispatcher probeQueries 0
scalar FogSequentialForward.fog[38].dispatcher probeAnswers 0
scalar FogSequentialForward.fog[38].dispatcher droppedJobsSLA 0
scalar FogSequentialForward.fog[38].dispatcher jobs_class_1 289792
scalar FogSequentialForward.fog[38].dispatcher remoteJobs_class_1 273602
scalar FogSequentialForward.fog[38].dispatcher localJobs_class_1 16190
scalar FogSequentialForward.fog[38].server[0] rho 1
scalar FogSequentialForward.fog[38].server[0] congestionRatio 0
scalar FogSequentialForward.fog[38].server[0] totalJobs 16190
scalar FogSequentialForward.fog[38].server[0] droppedJobsQueue 3292
scalar FogSequentialForward.fog[38].server[0] droppedJobsTimout 0
scalar FogSequentialForward.fog[38].server[0] droppedJobsSLA 10524
scalar FogSequentialForward.fog[38].server[0] droppedJobsTotal 13816
scalar FogSequentialForward.fog[39].dispatcher localJobs 16212
scalar FogSequentialForward.fog[39].dispatcher internalJobs 16132
scalar FogSequentialForward.fog[39].dispatcher externalJobs 273521
scalar FogSequentialForward.fog[39].dispatcher remoteJobs 273441
scalar FogSequentialForward.fog[39].dispatcher probeQueries 0
scalar FogSequentialForward.fog[39].dispatcher probeAnswers 0
scalar FogSequentialForward.fog[39].dispatcher droppedJobsSLA 0
scalar FogSequentialForward.fog[39].dispatcher jobs_class_1 289653
scalar FogSequentialForward.fog[39].dispatcher remoteJobs_class_1 273441
scalar FogSequentialForward.fog[39].dispatcher localJobs_class_1 16212
scalar FogSequentialForward.fog[39].server[0] rho 1
scalar FogSequentialForward.fog[39].server[0] congestionRatio 0
scalar FogSequentialForward.fog[39].server[0] totalJobs 16212
scalar FogSequentialForward.fog[39].server[0] droppedJobsQueue 3294
scalar FogSequentialForward.fog[39].server[0] droppedJobsTimout 0
scalar FogSequentialForward.fog[39].server[0] droppedJobsSLA 10494
scalar FogSequentialForward.fog[39].server[0] droppedJobsTotal 13788
scalar FogSequentialForward.fog[40].dispatcher localJobs 16197
scalar FogSequentialForward.fog[40].dispatcher internalJobs 16236
scalar FogSequentialForward.fog[40].dispatcher externalJobs 274496
scalar FogSequentialForward.fog[40].dispatcher remoteJobs 274535
scalar FogSequentialForward.fog[40].dispatcher probeQueries 0
scalar FogSequentialForward.fog[40].dispatcher probeAnswers 0
scalar FogSequentialForward.fog[40].dispatcher droppedJobsSLA 0
scalar FogSequentialForward.fog[40].dispatcher jobs_class_1 290732
scalar FogSequentialForward.fog[40].dispatcher remoteJobs_class_1 274535
scalar FogSequentialForward.fog[40].dispatcher localJobs_class_1 16197
scalar FogSequentialForward.fog[40].server[0] rho 1
scalar FogSequentialForward.fog[40].server[0] congestionRatio 0
scalar FogSequentialForward.fog[40].server[0] totalJobs 16197
scalar FogSequentialForward.fog[40].server[0] droppedJobsQueue 3287
scalar FogSequentialForward.fog[40].server[0] droppedJobsTimout 0
scalar FogSequentialForward.fog[40].server[0] droppedJobsSLA 10468
scalar FogSequentialForward.fog[40].server[0] droppedJobsTotal 13755
scalar FogSequentialForward.fog[41].dispatcher localJobs 16206
scalar FogSequentialForward.fog[41].dispatcher internalJobs 16389
scalar FogSequentialForward.fog[41].dispatcher externalJobs 273819
scalar FogSequentialForward.fog[41].dispatcher remoteJobs 274002
scalar FogSequentialForward.fog[41].dispatcher probeQueries 0
scalar FogSequentialForward.fog[41].dispatcher probeAnswers 0
scalar FogSequentialForward.fog[41].dispatcher droppedJobsSLA 0
scalar FogSequentialForward.fog[41].dispatcher jobs_class_1 290208
scalar FogSequentialForward.fog[41].dispatcher remoteJobs_class_1 274002
scalar FogSequentialForward.fog[41].dispatcher localJobs_class_1 16206
scalar FogSequentialForward.fog[41].server[0] rho 1
scalar FogSequentialForward.fog[41].server[0] congestionRatio 0
scalar FogSequentialForward.fog[41].server[0] totalJobs 16206
scalar FogSequentialForward.fog[41].server[0] droppedJobsQueue 3303
scalar FogSequentialForward.fog[41].server[0] droppedJobsTimout 0
scalar FogSequentialForward.fog[41].server[0] droppedJobsSLA 10521
scalar FogSequentialForward.fog[41].server[0] droppedJobsTotal 13824
scalar FogSequentialForward.fog[42].dispatcher localJobs 16189
scalar FogSequentialForward.fog[42].dispatcher internalJobs 16200
scalar FogSequentialForward.fog[42].dispatcher externalJobs 273866
scalar FogSequentialForward.fog[42].dispatcher remoteJobs 273877
scalar FogSequentialForward.fog[42].dispatcher probeQueries 0
scalar FogSequentialForward.fog[42].dispatcher probeAnswers 0
scalar FogSequentialForward.fog[42].dispatcher droppedJobsSLA 0
scalar FogSequentialForward.fog[42].dispatcher jobs_class_1 290066
scalar FogSequentialForward.fog[42].dispatcher remoteJobs_class_1 273877
scalar FogSequentialForward.fog[42].dispatcher localJobs_class_1 16189
scalar FogSequentialForward.fog[42].server[0] rho 1
scalar FogSequentialForward.fog[42].server[0] congestionRatio 0
scalar FogSequentialForward.fog[42].server[0] totalJobs 16189
scalar FogSequentialForward.fog[42].server[0] droppedJobsQueue 3294
scalar FogSequentialForward.fog[42].server[0] droppedJobsTimout 0
scalar FogSequentialForward.fog[42].server[0] droppedJobsSLA 10561
scalar FogSequentialForward.fog[42].server[0] droppedJobsTotal 13855
scalar FogSequentialForward.fog[43].dispatcher localJobs 16221
scalar FogSequentialForward.fog[43].dispatcher internalJobs 16108
scalar FogSequentialForward.fog[43].dispatcher externalJobs 272961
scalar FogSequentialForward.fog[43].dispatcher remoteJobs 272848
scalar FogSequentialForward.fog[43].dispatcher probeQueries 0
scalar FogSequentialForward.fog[43].dispatcher probeAnswers 0
scalar FogSequentialForward.fog[43].dispatcher droppedJobsSLA 0
scalar FogSequentialForward.fog[43].dispatcher jobs_class_1 289069
scalar FogSequentialForward.fog[43].dispatcher remoteJobs_class_1 272848
scalar FogSequentialForward.fog[43].dispatcher localJobs_class_1 16221
scalar FogSequentialForward.fog[43].server[0] rho 1
scalar FogSequentialForward.fog[43].server[0] congestionRatio 0
scalar FogSequentialForward.fog[43].server[0] totalJobs 16221
scalar FogSequentialForward.fog[43].server[0] droppedJobsQueue 3333
scalar FogSequentialForward.fog[43].server[0] droppedJobsTimout 0
scalar FogSequentialForward.fog[43].server[0] droppedJobsSLA 10548
scalar FogSequentialForward.fog[43].server[0] droppedJobsTotal 13881
scalar FogSequentialForward.fog[44].dispatcher localJobs 16230
scalar FogSequentialForward.fog[44].dispatcher internalJobs 16517
scalar FogSequentialForward.fog[44].dispatcher externalJobs 273793
scalar FogSequentialForward.fog[44].dispatcher remoteJobs 274080
scalar FogSequentialForward.fog[44].dispatcher probeQueries 0
scalar FogSequentialForward.fog[44].dispatcher probeAnswers 0
scalar FogSequentialForward.fog[44].dispatcher droppedJobsSLA 0
scalar FogSequentialForward.fog[44].dispatcher jobs_class_1 290310
scalar FogSequentialForward.fog[44].dispatcher remoteJobs_class_1 274080
scalar FogSequentialForward.fog[44].dispatcher localJobs_class_1 16230
scalar FogSequentialForward.fog[44].server[0] rho 1
scalar FogSequentialForward.fog[44].server[0] congestionRatio 0
scalar FogSequentialForward.fog[44].server[0] totalJobs 16230
scalar FogSequentialForward.fog[44].server[0] droppedJobsQueue 3334
scalar FogSequentialForward.fog[44].server[0] droppedJobsTimout 0
scalar FogSequentialForward.fog[44].server[0] droppedJobsSLA 10587
scalar FogSequentialForward.fog[44].server[0] droppedJobsTotal 13921
scalar FogSequentialForward.fog[45].dispatcher localJobs 16211
scalar FogSequentialForward.fog[45].dispatcher internalJobs 16182
scalar FogSequentialForward.fog[45].dispatcher externalJobs 272669
scalar FogSequentialForward.fog[45].dispatcher remoteJobs 272640
scalar FogSequentialForward.fog[45].dispatcher probeQueries 0
scalar FogSequentialForward.fog[45].dispatcher probeAnswers 0
scalar FogSequentialForward.fog[45].dispatcher droppedJobsSLA 0
scalar FogSequentialForward.fog[45].dispatcher jobs_class_1 288851
scalar FogSequentialForward.fog[45].dispatcher remoteJobs_class_1 272640
scalar FogSequentialForward.fog[45].dispatcher localJobs_class_1 16211
scalar FogSequentialForward.fog[45].server[0] rho 1
scalar FogSequentialForward.fog[45].server[0] congestionRatio 0
scalar FogSequentialForward.fog[45].server[0] totalJobs 16211
scalar FogSequentialForward.fog[45].server[0] droppedJobsQueue 3314
scalar FogSequentialForward.fog[45].server[0] droppedJobsTimout 0
scalar FogSequentialForward.fog[45].server[0] droppedJobsSLA 10517
scalar FogSequentialForward.fog[45].server[0] droppedJobsTotal 13831
scalar FogSequentialForward.fog[46].dispatcher localJobs 16218
scalar FogSequentialForward.fog[46].dispatcher internalJobs 15961
scalar FogSequentialForward.fog[46].dispatcher externalJobs 272604
scalar FogSequentialForward.fog[46].dispatcher remoteJobs 272347
scalar FogSequentialForward.fog[46].dispatcher probeQueries 0
scalar FogSequentialForward.fog[46].dispatcher probeAnswers 0
scalar FogSequentialForward.fog[46].dispatcher droppedJobsSLA 0
scalar FogSequentialForward.fog[46].dispatcher jobs_class_1 288565
scalar FogSequentialForward.fog[46].dispatcher remoteJobs_class_1 272347
scalar FogSequentialForward.fog[46].dispatcher localJobs_class_1 16218
scalar FogSequentialForward.fog[46].server[0] rho 1
scalar FogSequentialForward.fog[46].server[0] congestionRatio 0
scalar FogSequentialForward.fog[46].server[0] totalJobs 16218
scalar FogSequentialForward.fog[46].server[0] droppedJobsQueue 3310
scalar FogSequentialForward.fog[46].server[0] droppedJobsTimout 0
scalar FogSequentialForward.fog[46].server[0] droppedJobsSLA 10547
scalar FogSequentialForward.fog[46].server[0] droppedJobsTotal 13857
scalar FogSequentialForward.fog[47].dispatcher localJobs 16211
scalar FogSequentialForward.fog[47].dispatcher internalJobs 16405
scalar FogSequentialForward.fog[47].dispatcher externalJobs 272530
scalar FogSequentialForward.fog[47].dispatcher remoteJobs 272724
scalar FogSequentialForward.fog[47].dispatcher probeQueries 0
scalar FogSequentialForward.fog[47].dispatcher probeAnswers 0
scalar FogSequentialForward.fog[47].dispatcher droppedJobsSLA 0
scalar FogSequentialForward.fog[47].dispatcher jobs_class_1 288935
scalar FogSequentialForward.fog[47].dispatcher remoteJobs_class_1 272724
scalar FogSequentialForward.fog[47].dispatcher localJobs_class_1 16211
scalar FogSequentialForward.fog[47].server[0] rho 1
scalar FogSequentialForward.fog[47].server[0] congestionRatio 0
scalar FogSequentialForward.fog[47].server[0] totalJobs 16211
scalar FogSequentialForward.fog[47].server[0] droppedJobsQueue 3307
scalar FogSequentialForward.fog[47].server[0] droppedJobsTimout 0
scalar FogSequentialForward.fog[47].server[0] droppedJobsSLA 10538
scalar FogSequentialForward.fog[47].server[0] droppedJobsTotal 13845
scalar FogSequentialForward.fog[48].dispatcher localJobs 16209
scalar FogSequentialForward.fog[48].dispatcher internalJobs 16391
scalar FogSequentialForward.fog[48].dispatcher externalJobs 273524
scalar FogSequentialForward.fog[48].dispatcher remoteJobs 273706
scalar FogSequentialForward.fog[48].dispatcher probeQueries 0
scalar FogSequentialForward.fog[48].dispatcher probeAnswers 0
scalar FogSequentialForward.fog[48].dispatcher droppedJobsSLA 0
scalar FogSequentialForward.fog[48].dispatcher jobs_class_1 289915
scalar FogSequentialForward.fog[48].dispatcher remoteJobs_class_1 273706
scalar FogSequentialForward.fog[48].dispatcher localJobs_class_1 16209
scalar FogSequentialForward.fog[48].server[0] rho 1
scalar FogSequentialForward.fog[48].server[0] congestionRatio 0
scalar FogSequentialForward.fog[48].server[0] totalJobs 16209
scalar FogSequentialForward.fog[48].server[0] droppedJobsQueue 3324
scalar FogSequentialForward.fog[48].server[0] droppedJobsTimout 0
scalar FogSequentialForward.fog[48].server[0] droppedJobsSLA 10577
scalar FogSequentialForward.fog[48].server[0] droppedJobsTotal 13901
scalar FogSequentialForward.fog[49].dispatcher localJobs 16214
scalar FogSequentialForward.fog[49].dispatcher internalJobs 16297
scalar FogSequentialForward.fog[49].dispatcher externalJobs 272394
scalar FogSequentialForward.fog[49].dispatcher remoteJobs 272477
scalar FogSequentialForward.fog[49].dispatcher probeQueries 0
scalar FogSequentialForward.fog[49].dispatcher probeAnswers 0
scalar FogSequentialForward.fog[49].dispatcher droppedJobsSLA 0
scalar FogSequentialForward.fog[49].dispatcher jobs_class_1 288691
scalar FogSequentialForward.fog[49].dispatcher remoteJobs_class_1 272477
scalar FogSequentialForward.fog[49].dispatcher localJobs_class_1 16214
scalar FogSequentialForward.fog[49].server[0] rho 1
scalar FogSequentialForward.fog[49].server[0] congestionRatio 0
scalar FogSequentialForward.fog[49].server[0] totalJobs 16214
scalar FogSequentialForward.fog[49].server[0] droppedJobsQueue 3308
scalar FogSequentialForward.fog[49].server[0] droppedJobsTimout 0
scalar FogSequentialForward.fog[49].server[0] droppedJobsSLA 10545
scalar FogSequentialForward.fog[49].server[0] droppedJobsTotal 13853
scalar FogSequentialForward.fog[50].dispatcher localJobs 16221
scalar FogSequentialForward.fog[50].dispatcher internalJobs 16215
scalar FogSequentialForward.fog[50].dispatcher externalJobs 272492
scalar FogSequentialForward.fog[50].dispatcher remoteJobs 272486
scalar FogSequentialForward.fog[50].dispatcher probeQueries 0
scalar FogSequentialForward.fog[50].dispatcher probeAnswers 0
scalar FogSequentialForward.fog[50].dispatcher droppedJobsSLA 0
scalar FogSequentialForward.fog[50].dispatcher jobs_class_1 288707
scalar FogSequentialForward.fog[50].dispatcher remoteJobs_class_1 272486
scalar FogSequentialForward.fog[50].dispatcher localJobs_class_1 16221
scalar FogSequentialForward.fog[50].server[0] rho 1
scalar FogSequentialForward.fog[50].server[0] congestionRatio 0
scalar FogSequentialForward.fog[50].server[0] totalJobs 16221
scalar FogSequentialForward.fog[50].server[0] droppedJobsQueue 3323
scalar FogSequentialForward.fog[50].server[0] droppedJobsTimout 0
scalar FogSequentialForward.fog[50].server[0] droppedJobsSLA 10528
scalar FogSequentialForward.fog[50].server[0] droppedJobsTotal 13851
scalar FogSequentialForward.fog[51].dispatcher localJobs 16205
scalar FogSequentialForward.fog[51].dispatcher internalJobs 15923
scalar FogSequentialForward.fog[51].dispatcher externalJobs 273749
scalar FogSequentialForward.fog[51].dispatcher remoteJobs 273467
scalar FogSequentialForward.fog[51].dispatcher probeQueries 0
scalar FogSequentialForward.fog[51].dispatcher probeAnswers 0
scalar FogSequentialForward.fog[51].dispatcher droppedJobsSLA 0
scalar FogSequentialForward.fog[51].dispatcher jobs_class_1 289672
scalar FogSequentialForward.fog[51].dispatcher remoteJobs_class_1 273467
scalar FogSequentialForward.fog[51].dispatcher localJobs_class_1 16205
scalar FogSequentialForward.fog[51].server[0] rho 1
scalar FogSequentialForward.fog[51].server[0] congestionRatio 0
scalar FogSequentialForward.fog[51].server[0] totalJobs 16205
scalar FogSequentialForward.fog[51].server[0] droppedJobsQueue 3305
scalar FogSequentialForward.fog[51].server[0] droppedJobsTimout 0
scalar FogSequentialForward.fog[51].server[0] droppedJobsSLA 10515
scalar FogSequentialForward.fog[51].server[0] droppedJobsTotal 13820
scalar FogSequentialForward.fog[52].dispatcher localJobs 16207
scalar FogSequentialForward.fog[52].dispatcher internalJobs 16125
scalar FogSequentialForward.fog[52].dispatcher externalJobs 273225
scalar FogSequentialForward.fog[52].dispatcher remoteJobs 273143
scalar FogSequentialForward.fog[52].dispatcher probeQueries 0
scalar FogSequentialForward.fog[52].dispatcher probeAnswers 0
scalar FogSequentialForward.fog[52].dispatcher droppedJobsSLA 0
scalar FogSequentialForward.fog[52].dispatcher jobs_class_1 289350
scalar FogSequentialForward.fog[52].dispatcher remoteJobs_class_1 273143
scalar FogSequentialForward.fog[52].dispatcher localJobs_class_1 16207
scalar FogSequentialForward.fog[52].server[0] rho 1
scalar FogSequentialForward.fog[52].server[0] congestionRatio 0
scalar FogSequentialForward.fog[52].server[0] totalJobs 16207
scalar FogSequentialForward.fog[52].server[0] droppedJobsQueue 3297
scalar FogSequentialForward.fog[52].server[0] droppedJobsTimout 0
scalar FogSequentialForward.fog[52].server[0] droppedJobsSLA 10483
scalar FogSequentialForward.fog[52].server[0] droppedJobsTotal 13780
scalar FogSequentialForward.fog[53].dispatcher localJobs 16203
scalar FogSequentialForward.fog[53].dispatcher internalJobs 16372
scalar FogSequentialForward.fog[53].dispatcher externalJobs 273201
scalar FogSequentialForward.fog[53].dispatcher remoteJobs 273370
scalar FogSequentialForward.fog[53].dispatcher probeQueries 0
scalar FogSequentialForward.fog[53].dispatcher probeAnswers 0
scalar FogSequentialForward.fog[53].dispatcher droppedJobsSLA 0
scalar FogSequentialForward.fog[53].dispatcher jobs_class_1 289573
scalar FogSequentialForward.fog[53].dispatcher remoteJobs_class_1 273370
scalar FogSequentialForward.fog[53].dispatcher localJobs_class_1 16203
scalar FogSequentialForward.fog[53].server[0] rho 1
scalar FogSequentialForward.fog[53].server[0] congestionRatio 0
scalar FogSequentialForward.fog[53].server[0] totalJobs 16203
scalar FogSequentialForward.fog[53].server[0] droppedJobsQueue 3283
scalar FogSequentialForward.fog[53].server[0] droppedJobsTimout 0
scalar FogSequentialForward.fog[53].server[0] droppedJobsSLA 10493
scalar FogSequentialForward.fog[53].server[0] droppedJobsTotal 13776
scalar FogSequentialForward.fog[54].dispatcher localJobs 16178
scalar FogSequentialForward.fog[54].dispatcher internalJobs 16083
scalar FogSequentialForward.fog[54].dispatcher externalJobs 272996
scalar FogSequentialForward.fog[54].dispatcher remoteJobs 272901
scalar FogSequentialForward.fog[54].dispatcher probeQueries 0
scalar FogSequentialForward.fog[54].dispatcher probeAnswers 0
scalar FogSequentialForward.fog[54].dispatcher droppedJobsSLA 0
scalar FogSequentialForward.fog[54].dispatcher jobs_class_1 289079
scalar FogSequentialForward.fog[54].dispatcher remoteJobs_class_1 272901
scalar FogSequentialForward.fog[54].dispatcher localJobs_class_1 16178
scalar FogSequentialForward.fog[54].server[0] rho 1
scalar FogSequentialForward.fog[54].server[0] congestionRatio 0
scalar FogSequentialForward.fog[54].server[0] totalJobs 16178
scalar FogSequentialForward.fog[54].server[0] droppedJobsQueue 3281
scalar FogSequentialForward.fog[54].server[0] droppedJobsTimout 0
scalar FogSequentialForward.fog[54].server[0] droppedJobsSLA 10465
scalar FogSequentialForward.fog[54].server[0] droppedJobsTotal 13746
scalar FogSequentialForward.fog[55].dispatcher localJobs 16226
scalar FogSequentialForward.fog[55].dispatcher internalJobs 16197
scalar FogSequentialForward.fog[55].dispatcher externalJobs 272644
scalar FogSequentialForward.fog[55].dispatcher remoteJobs 272615
scalar FogSequentialForward.fog[55].dispatcher probeQueries 0
scalar FogSequentialForward.fog[55].dispatcher probeAnswers 0
scalar FogSequentialForward.fog[55].dispatcher droppedJobsSLA 0
scalar FogSequentialForward.fog[55].dispatcher jobs_class_1 288841
scalar FogSequentialForward.fog[55].dispatcher remoteJobs_class_1 272615
scalar FogSequentialForward.fog[55].dispatcher localJobs_class_1 16226
scalar FogSequentialForward.fog[55].server[0] rho 1
scalar FogSequentialForward.fog[55].server[0] congestionRatio 0
scalar FogSequentialForward.fog[55].server[0] totalJobs 16226
scalar FogSequentialForward.fog[55].server[0] droppedJobsQueue 3326
scalar FogSequentialForward.fog[55].server[0] droppedJobsTimout 0
scalar FogSequentialForward.fog[55].server[0] droppedJobsSLA 10550
scalar FogSequentialForward.fog[55].server[0] droppedJobsTotal 13876
scalar FogSequentialForward.fog[56].dispatcher localJobs 16252
scalar FogSequentialForward.fog[56].dispatcher internalJobs 16201
scalar FogSequentialForward.fog[56].dispatcher externalJobs 273950
scalar FogSequentialForward.fog[56].dispatcher remoteJobs 273899
scalar FogSequentialForward.fog[56].dispatcher probeQueries 0
scalar FogSequentialForward.fog[56].dispatcher probeAnswers 0
scalar FogSequentialForward.fog[56].dispatcher droppedJobsSLA 0
scalar FogSequentialForward.fog[56].dispatcher jobs_class_1 290151
scalar FogSequentialForward.fog[56].dispatcher remoteJobs_class_1 273899
scalar FogSequentialForward.fog[56].dispatcher localJobs_class_1 16252
scalar FogSequentialForward.fog[56].server[0] rho 1
scalar FogSequentialForward.fog[56].server[0] congestionRatio 0
scalar FogSequentialForward.fog[56].server[0] totalJobs 16252
scalar FogSequentialForward.fog[56].server[0] droppedJobsQueue 3334
scalar FogSequentialForward.fog[56].server[0] droppedJobsTimout 0
scalar FogSequentialForward.fog[56].server[0] droppedJobsSLA 10509
scalar FogSequentialForward.fog[56].server[0] droppedJobsTotal 13843
scalar FogSequentialForward.fog[57].dispatcher localJobs 16188
scalar FogSequentialForward.fog[57].dispatcher internalJobs 15978
scalar FogSequentialForward.fog[57].dispatcher externalJobs 272239
scalar FogSequentialForward.fog[57].dispatcher remoteJobs 272029
scalar FogSequentialForward.fog[57].dispatcher probeQueries 0
scalar FogSequentialForward.fog[57].dispatcher probeAnswers 0
scalar FogSequentialForward.fog[57].dispatcher droppedJobsSLA 0
scalar FogSequentialForward.fog[57].dispatcher jobs_class_1 288217
scalar FogSequentialForward.fog[57].dispatcher remoteJobs_class_1 272029
scalar FogSequentialForward.fog[57].dispatcher localJobs_class_1 16188
scalar FogSequentialForward.fog[57].server[0] rho 1
scalar FogSequentialForward.fog[57].server[0] congestionRatio 0
scalar FogSequentialForward.fog[57].server[0] totalJobs 16188
scalar FogSequentialForward.fog[57].server[0] droppedJobsQueue 3288
scalar FogSequentialForward.fog[57].server[0] droppedJobsTimout 0
scalar FogSequentialForward.fog[57].server[0] droppedJobsSLA 10498
scalar FogSequentialForward.fog[57].server[0] droppedJobsTotal 13786
scalar FogSequentialForward.fog[58].dispatcher localJobs 16236
scalar FogSequentialForward.fog[58].dispatcher internalJobs 16201
scalar FogSequentialForward.fog[58].dispatcher externalJobs 273011
scalar FogSequentialForward.fog[58].dispatcher remoteJobs 272976
scalar FogSequentialForward.fog[58].dispatcher probeQueries 0
scalar FogSequentialForward.fog[58].dispatcher probeAnswers 0
scalar FogSequentialForward.fog[58].dispatcher droppedJobsSLA 0
scalar FogSequentialForward.fog[58].dispatcher jobs_class_1 289212
scalar FogSequentialForward.fog[58].dispatcher remoteJobs_class_1 272976
scalar FogSequentialForward.fog[58].dispatcher localJobs_class_1 16236
scalar FogSequentialForward.fog[58].server[0] rho 0.99999129772186
scalar FogSequentialForward.fog[58].server[0] congestionRatio 0
scalar FogSequentialForward.fog[58].server[0] totalJobs 16236
scalar FogSequentialForward.fog[58].server[0] droppedJobsQueue 3326
scalar FogSequentialForward.fog[58].server[0] droppedJobsTimout 0
scalar FogSequentialForward.fog[58].server[0] droppedJobsSLA 10498
scalar FogSequentialForward.fog[58].server[0] droppedJobsTotal 13824
scalar FogSequentialForward.fog[59].dispatcher localJobs 16201
scalar FogSequentialForward.fog[59].dispatcher internalJobs 16209
scalar FogSequentialForward.fog[59].dispatcher externalJobs 272747
scalar FogSequentialForward.fog[59].dispatcher remoteJobs 272755
scalar FogSequentialForward.fog[59].dispatcher probeQueries 0
scalar FogSequentialForward.fog[59].dispatcher probeAnswers 0
scalar FogSequentialForward.fog[59].dispatcher droppedJobsSLA 0
scalar FogSequentialForward.fog[59].dispatcher jobs_class_1 288956
scalar FogSequentialForward.fog[59].dispatcher remoteJobs_class_1 272755
scalar FogSequentialForward.fog[59].dispatcher localJobs_class_1 16201
scalar FogSequentialForward.fog[59].server[0] rho 1
scalar FogSequentialForward.fog[59].server[0] congestionRatio 0
scalar FogSequentialForward.fog[59].server[0] totalJobs 16201
scalar FogSequentialForward.fog[59].server[0] droppedJobsQueue 3307
scalar FogSequentialForward.fog[59].server[0] droppedJobsTimout 0
scalar FogSequentialForward.fog[59].server[0] droppedJobsSLA 10538
scalar FogSequentialForward.fog[59].server[0] droppedJobsTotal 13845
scalar FogSequentialForward.fog[60].dispatcher localJobs 16187
scalar FogSequentialForward.fog[60].dispatcher internalJobs 16033
scalar FogSequentialForward.fog[60].dispatcher externalJobs 272613
scalar FogSequentialForward.fog[60].dispatcher remoteJobs 272459
scalar FogSequentialForward.fog[60].dispatcher probeQueries 0
scalar FogSequentialForward.fog[60].dispatcher probeAnswers 0
scalar FogSequentialForward.fog[60].dispatcher droppedJobsSLA 0
scalar FogSequentialForward.fog[60].dispatcher jobs_class_1 288646
scalar FogSequentialForward.fog[60].dispatcher remoteJobs_class_1 272459
scalar FogSequentialForward.fog[60].dispatcher localJobs_class_1 16187
scalar FogSequentialForward.fog[60].server[0] rho 1
scalar FogSequentialForward.fog[60].server[0] congestionRatio 0
scalar FogSequentialForward.fog[60].server[0] totalJobs 16187
scalar FogSequentialForward.fog[60].server[0] droppedJobsQueue 3302
scalar FogSequentialForward.fog[60].server[0] droppedJobsTimout 0
scalar FogSequentialForward.fog[60].server[0] droppedJobsSLA 10540
scalar FogSequentialForward.fog[60].server[0] droppedJobsTotal 13842
scalar FogSequentialForward.fog[61].dispatcher localJobs 16247
scalar FogSequentialForward.fog[61].dispatcher internalJobs 16109
scalar FogSequentialForward.fog[61].dispatcher externalJobs 273327
scalar FogSequentialForward.fog[61].dispatcher remoteJobs 273189
scalar FogSequentialForward.fog[61].dispatcher probeQueries 0
scalar FogSequentialForward.fog[61].dispatcher probeAnswers 0
scalar FogSequentialForward.fog[61].dispatcher droppedJobsSLA 0
scalar FogSequentialForward.fog[61].dispatcher jobs_class_1 289436
scalar FogSequentialForward.fog[61].dispatcher remoteJobs_class_1 273189
scalar FogSequentialForward.fog[61].dispatcher localJobs_class_1 16247
scalar FogSequentialForward.fog[61].server[0] rho 1
scalar FogSequentialForward.fog[61].server[0] congestionRatio 0
scalar FogSequentialForward.fog[61].server[0] totalJobs 16247
scalar FogSequentialForward.fog[61].server[0] droppedJobsQueue 3327
scalar FogSequentialForward.fog[61].server[0] droppedJobsTimout 0
scalar FogSequentialForward.fog[61].server[0] droppedJobsSLA 10558
scalar FogSequentialForward.fog[61].server[0] droppedJobsTotal 13885
scalar FogSequentialForward.fog[62].dispatcher localJobs 16173
scalar FogSequentialForward.fog[62].dispatcher internalJobs 16285
scalar FogSequentialForward.fog[62].dispatcher externalJobs 273265
scalar FogSequentialForward.fog[62].dispatcher remoteJobs 273377
scalar FogSequentialForward.fog[62].dispatcher probeQueries 0
scalar FogSequentialForward.fog[62].dispatcher probeAnswers 0
scalar FogSequentialForward.fog[62].dispatcher droppedJobsSLA 0
scalar FogSequentialForward.fog[62].dispatcher jobs_class_1 289550
scalar FogSequentialForward.fog[62].dispatcher remoteJobs_class_1 273377
scalar FogSequentialForward.fog[62].dispatcher localJobs_class_1 16173
scalar FogSequentialForward.fog[62].server[0] rho 1
scalar FogSequentialForward.fog[62].server[0] congestionRatio 0
scalar FogSequentialForward.fog[62].server[0] totalJobs 16173
scalar FogSequentialForward.fog[62].server[0] droppedJobsQueue 3271
scalar FogSequentialForward.fog[62].server[0] droppedJobsTimout 0
scalar FogSequentialForward.fog[62].server[0] droppedJobsSLA 10452
scalar FogSequentialForward.fog[62].server[0] droppedJobsTotal 13723
scalar FogSequentialForward.fog[63].dispatcher localJobs 16197
scalar FogSequentialForward.fog[63].dispatcher internalJobs 16071
scalar FogSequentialForward.fog[63].dispatcher externalJobs 273339
scalar FogSequentialForward.fog[63].dispatcher remoteJobs 273213
scalar FogSequentialForward.fog[63].dispatcher probeQueries 0
scalar FogSequentialForward.fog[63].dispatcher probeAnswers 0
scalar FogSequentialForward.fog[63].dispatcher droppedJobsSLA 0
scalar FogSequentialForward.fog[63].dispatcher jobs_class_1 289410
scalar FogSequentialForward.fog[63].dispatcher remoteJobs_class_1 273213
scalar FogSequentialForward.fog[63].dispatcher localJobs_class_1 16197
scalar FogSequentialForward.fog[63].server[0] rho 1
scalar FogSequentialForward.fog[63].server[0] congestionRatio 0
scalar FogSequentialForward.fog[63].server[0] totalJobs 16197
scalar FogSequentialForward.fog[63].server[0] droppedJobsQueue 3305
scalar FogSequentialForward.fog[63].server[0] droppedJobsTimout 0
scalar FogSequentialForward.fog[63].server[0] droppedJobsSLA 10508
scalar FogSequentialForward.fog[63].server[0] droppedJobsTotal 13813
scalar FogSequentialForward.fog[64].dispatcher localJobs 16242
scalar FogSequentialForward.fog[64].dispatcher internalJobs 16136
scalar FogSequentialForward.fog[64].dispatcher externalJobs 273113
scalar FogSequentialForward.fog[64].dispatcher remoteJobs 273007
scalar FogSequentialForward.fog[64].dispatcher probeQueries 0
scalar FogSequentialForward.fog[64].dispatcher probeAnswers 0
scalar FogSequentialForward.fog[64].dispatcher droppedJobsSLA 0
scalar FogSequentialForward.fog[64].dispatcher jobs_class_1 289249
scalar FogSequentialForward.fog[64].dispatcher remoteJobs_class_1 273007
scalar FogSequentialForward.fog[64].dispatcher localJobs_class_1 16242
scalar FogSequentialForward.fog[64].server[0] rho 1
scalar FogSequentialForward.fog[64].server[0] congestionRatio 0
scalar FogSequentialForward.fog[64].server[0] totalJobs 16242
scalar FogSequentialForward.fog[64].server[0] droppedJobsQueue 3342
scalar FogSequentialForward.fog[64].server[0] droppedJobsTimout 0
scalar FogSequentialForward.fog[64].server[0] droppedJobsSLA 10548
scalar FogSequentialForward.fog[64].server[0] droppedJobsTotal 13890
scalar FogSequentialForward.fog[65].dispatcher localJobs 16245
scalar FogSequentialForward.fog[65].dispatcher internalJobs 16192
scalar FogSequentialForward.fog[65].dispatcher externalJobs 272325
scalar FogSequentialForward.fog[65].dispatcher remoteJobs 272272
scalar FogSequentialForward.fog[65].dispatcher probeQueries 0
scalar FogSequentialForward.fog[65].dispatcher probeAnswers 0
scalar FogSequentialForward.fog[65].dispatcher droppedJobsSLA 0
scalar FogSequentialForward.fog[65].dispatcher jobs_class_1 288517
scalar FogSequentialForward.fog[65].dispatcher remoteJobs_class_1 272272
scalar FogSequentialForward.fog[65].dispatcher localJobs_class_1 16245
scalar FogSequentialForward.fog[65].server[0] rho 1
scalar FogSequentialForward.fog[65].server[0] congestionRatio 0
scalar FogSequentialForward.fog[65].server[0] totalJobs 16245
scalar FogSequentialForward.fog[65].server[0] droppedJobsQueue 3334
scalar FogSequentialForward.fog[65].server[0] droppedJobsTimout 0
scalar FogSequentialForward.fog[65].server[0] droppedJobsSLA 10526
scalar FogSequentialForward.fog[65].server[0] droppedJobsTotal 13860
scalar FogSequentialForward.fog[66].dispatcher localJobs 16175
scalar FogSequentialForward.fog[66].dispatcher internalJobs 16058
scalar FogSequentialForward.fog[66].dispatcher externalJobs 272805
scalar FogSequentialForward.fog[66].dispatcher remoteJobs 272688
scalar FogSequentialForward.fog[66].dispatcher probeQueries 0
scalar FogSequentialForward.fog[66].dispatcher probeAnswers 0
scalar FogSequentialForward.fog[66].dispatcher droppedJobsSLA 0
scalar FogSequentialForward.fog[66].dispatcher jobs_class_1 288863
scalar FogSequentialForward.fog[66].dispatcher remoteJobs_class_1 272688
scalar FogSequentialForward.fog[66].dispatcher localJobs_class_1 16175
scalar FogSequentialForward.fog[66].server[0] rho 1
scalar FogSequentialForward.fog[66].server[0] congestionRatio 0
scalar FogSequentialForward.fog[66].server[0] totalJobs 16175
scalar FogSequentialForward.fog[66].server[0] droppedJobsQueue 3294
scalar FogSequentialForward.fog[66].server[0] droppedJobsTimout 0
scalar FogSequentialForward.fog[66].server[0] droppedJobsSLA 10503
scalar FogSequentialForward.fog[66].server[0] droppedJobsTotal 13797
scalar FogSequentialForward.fog[67].dispatcher localJobs 16220
scalar FogSequentialForward.fog[67].dispatcher internalJobs 16187
scalar FogSequentialForward.fog[67].dispatcher externalJobs 272941
scalar FogSequentialForward.fog[67].dispatcher remoteJobs 272908
scalar FogSequentialForward.fog[67].dispatcher probeQueries 0
scalar FogSequentialForward.fog[67].dispatcher probeAnswers 0
scalar FogSequentialForward.fog[67].dispatcher droppedJobsSLA 0
scalar FogSequentialForward.fog[67].dispatcher jobs_class_1 289128
scalar FogSequentialForward.fog[67].dispatcher remoteJobs_class_1 272908
scalar FogSequentialForward.fog[67].dispatcher localJobs_class_1 16220
scalar FogSequentialForward.fog[67].server[0] rho 1
scalar FogSequentialForward.fog[67].server[0] congestionRatio 0
scalar FogSequentialForward.fog[67].server[0] totalJobs 16220
scalar FogSequentialForward.fog[67].server[0] droppedJobsQueue 3317
scalar FogSequentialForward.fog[67].server[0] droppedJobsTimout 0
scalar FogSequentialForward.fog[67].server[0] droppedJobsSLA 10515
scalar FogSequentialForward.fog[67].server[0] droppedJobsTotal 13832
scalar FogSequentialForward.fog[68].dispatcher localJobs 16248
scalar FogSequentialForward.fog[68].dispatcher internalJobs 16236
scalar FogSequentialForward.fog[68].dispatcher externalJobs 273548
scalar FogSequentialForward.fog[68].dispatcher remoteJobs 273536
scalar FogSequentialForward.fog[68].dispatcher probeQueries 0
scalar FogSequentialForward.fog[68].dispatcher probeAnswers 0
scalar FogSequentialForward.fog[68].dispatcher droppedJobsSLA 0
scalar FogSequentialForward.fog[68].dispatcher jobs_class_1 289784
scalar FogSequentialForward.fog[68].dispatcher remoteJobs_class_1 273536
scalar FogSequentialForward.fog[68].dispatcher localJobs_class_1 16248
scalar FogSequentialForward.fog[68].server[0] rho 0.99993979930878
scalar FogSequentialForward.fog[68].server[0] congestionRatio 0
scalar FogSequentialForward.fog[68].server[0] totalJobs 16248
scalar FogSequentialForward.fog[68].server[0] droppedJobsQueue 3343
scalar FogSequentialForward.fog[68].server[0] droppedJobsTimout 0
scalar FogSequentialForward.fog[68].server[0] droppedJobsSLA 10510
scalar FogSequentialForward.fog[68].server[0] droppedJobsTotal 13853
scalar FogSequentialForward.fog[69].dispatcher localJobs 16244
scalar FogSequentialForward.fog[69].dispatcher internalJobs 15789
scalar FogSequentialForward.fog[69].dispatcher externalJobs 272096
scalar FogSequentialForward.fog[69].dispatcher remoteJobs 271641
scalar FogSequentialForward.fog[69].dispatcher probeQueries 0
scalar FogSequentialForward.fog[69].dispatcher probeAnswers 0
scalar FogSequentialForward.fog[69].dispatcher droppedJobsSLA 0
scalar FogSequentialForward.fog[69].dispatcher jobs_class_1 287885
scalar FogSequentialForward.fog[69].dispatcher remoteJobs_class_1 271641
scalar FogSequentialForward.fog[69].dispatcher localJobs_class_1 16244
scalar FogSequentialForward.fog[69].server[0] rho 1
scalar FogSequentialForward.fog[69].server[0] congestionRatio 0
scalar FogSequentialForward.fog[69].server[0] totalJobs 16244
scalar FogSequentialForward.fog[69].server[0] droppedJobsQueue 3335
scalar FogSequentialForward.fog[69].server[0] droppedJobsTimout 0
scalar FogSequentialForward.fog[69].server[0] droppedJobsSLA 10496
scalar FogSequentialForward.fog[69].server[0] droppedJobsTotal 13831
scalar FogSequentialForward.fog[70].dispatcher localJobs 16211
scalar FogSequentialForward.fog[70].dispatcher internalJobs 16323
scalar FogSequentialForward.fog[70].dispatcher externalJobs 272878
scalar FogSequentialForward.fog[70].dispatcher remoteJobs 272990
scalar FogSequentialForward.fog[70].dispatcher probeQueries 0
scalar FogSequentialForward.fog[70].dispatcher probeAnswers 0
scalar FogSequentialForward.fog[70].dispatcher droppedJobsSLA 0
scalar FogSequentialForward.fog[70].dispatcher jobs_class_1 289201
scalar FogSequentialForward.fog[70].dispatcher remoteJobs_class_1 272990
scalar FogSequentialForward.fog[70].dispatcher localJobs_class_1 16211
scalar FogSequentialForward.fog[70].server[0] rho 1
scalar FogSequentialForward.fog[70].server[0] congestionRatio 0
scalar FogSequentialForward.fog[70].server[0] totalJobs 16211
scalar FogSequentialForward.fog[70].server[0] droppedJobsQueue 3305
scalar FogSequentialForward.fog[70].server[0] droppedJobsTimout 0
scalar FogSequentialForward.fog[70].server[0] droppedJobsSLA 10475
scalar FogSequentialForward.fog[70].server[0] droppedJobsTotal 13780
scalar FogSequentialForward.fog[71].dispatcher localJobs 16235
scalar FogSequentialForward.fog[71].dispatcher internalJobs 16221
[...]
scalar FogSequentialForward.fog[83].dispatcher localJobs 16209
scalar FogSequentialForward.fog[83].dispatcher internalJobs 16074
scalar FogSequentialForward.fog[83].dispatcher externalJobs 272987
scalar FogSequentialForward.fog[83].dispatcher remoteJobs 272852
scalar FogSequentialForward.fog[83].dispatcher probeQueries 0
scalar FogSequentialForward.fog[83].dispatcher probeAnswers 0
scalar FogSequentialForward.fog[83].dispatcher droppedJobsSLA 0
scalar FogSequentialForward.fog[83].dispatcher jobs_class_1 289061
scalar FogSequentialForward.fog[83].dispatcher remoteJobs_class_1 272852
scalar FogSequentialForward.fog[83].dispatcher localJobs_class_1 16209
scalar FogSequentialForward.fog[83].server[0] rho 0.99982142448425
scalar FogSequentialForward.fog[83].server[0] congestionRatio 0
scalar FogSequentialForward.fog[83].server[0] totalJobs 16209
scalar FogSequentialForward.fog[83].server[0] droppedJobsQueue 3317
scalar FogSequentialForward.fog[83].server[0] droppedJobsTimout 0
scalar FogSequentialForward.fog[83].server[0] droppedJobsSLA 10517
scalar FogSequentialForward.fog[83].server[0] droppedJobsTotal 13834
scalar FogSequentialForward.fog[84].dispatcher localJobs 16177
scalar FogSequentialForward.fog[84].dispatcher internalJobs 15967
scalar FogSequentialForward.fog[84].dispatcher externalJobs 273510
scalar FogSequentialForward.fog[84].dispatcher remoteJobs 273300
scalar FogSequentialForward.fog[84].dispatcher probeQueries 0
scalar FogSequentialForward.fog[84].dispatcher probeAnswers 0
scalar FogSequentialForward.fog[84].dispatcher droppedJobsSLA 0
scalar FogSequentialForward.fog[84].dispatcher jobs_class_1 289477
scalar FogSequentialForward.fog[84].dispatcher remoteJobs_class_1 273300
scalar FogSequentialForward.fog[84].dispatcher localJobs_class_1 16177
scalar FogSequentialForward.fog[84].server[0] rho 1
scalar FogSequentialForward.fog[84].server[0] congestionRatio 0
scalar FogSequentialForward.fog[84].server[0] totalJobs 16177
scalar FogSequentialForward.fog[84].server[0] droppedJobsQueue 3284
scalar FogSequentialForward.fog[84].server[0] droppedJobsTimout 0
scalar FogSequentialForward.fog[84].server[0] droppedJobsSLA 10487
scalar FogSequentialForward.fog[84].server[0] droppedJobsTotal 13771
scalar FogSequentialForward.fog[85].dispatcher localJobs 16220
scalar FogSequentialForward.fog[85].dispatcher internalJobs 16182
scalar FogSequentialForward.fog[85].dispatcher externalJobs 273720
scalar FogSequentialForward.fog[85].dispatcher remoteJobs 273682
scalar FogSequentialForward.fog[85].dispatcher probeQueries 0
scalar FogSequentialForward.fog[85].dispatcher probeAnswers 0
scalar FogSequentialForward.fog[85].dispatcher droppedJobsSLA 0
scalar FogSequentialForward.fog[85].dispatcher jobs_class_1 289902
scalar FogSequentialForward.fog[85].dispatcher remoteJobs_class_1 273682
scalar FogSequentialForward.fog[85].dispatcher localJobs_class_1 16220
scalar FogSequentialForward.fog[85].server[0] rho 1
scalar FogSequentialForward.fog[85].server[0] congestionRatio 0
scalar FogSequentialForward.fog[85].server[0] totalJobs 16220
scalar FogSequentialForward.fog[85].server[0] droppedJobsQueue 3317
scalar FogSequentialForward.fog[85].server[0] droppedJobsTimout 0
scalar FogSequentialForward.fog[85].server[0] droppedJobsSLA 10508
scalar FogSequentialForward.fog[85].server[0] droppedJobsTotal 13825
scalar FogSequentialForward.fog[86].dispatcher localJobs 16196
scalar FogSequentialForward.fog[86].dispatcher internalJobs 16214
scalar FogSequentialForward.fog[86].dispatcher externalJobs 272574
scalar FogSequentialForward.fog[86].dispatcher remoteJobs 272592
scalar FogSequentialForward.fog[86].dispatcher probeQueries 0
scalar FogSequentialForward.fog[86].dispatcher probeAnswers 0
scalar FogSequentialForward.fog[86].dispatcher droppedJobsSLA 0
scalar FogSequentialForward.fog[86].dispatcher jobs_class_1 288788
scalar FogSequentialForward.fog[86].dispatcher remoteJobs_class_1 272592
scalar FogSequentialForward.fog[86].dispatcher localJobs_class_1 16196
scalar FogSequentialForward.fog[86].server[0] rho 1
scalar FogSequentialForward.fog[86].server[0] congestionRatio 0
scalar FogSequentialForward.fog[86].server[0] totalJobs 16196
scalar FogSequentialForward.fog[86].server[0] droppedJobsQueue 3302
scalar FogSequentialForward.fog[86].server[0] droppedJobsTimout 0
scalar FogSequentialForward.fog[86].server[0] droppedJobsSLA 10452
scalar FogSequentialForward.fog[86].server[0] droppedJobsTotal 13754
scalar FogSequentialForward.fog[87].dispatcher localJobs 16229
scalar FogSequentialForward.fog[87].dispatcher internalJobs 16272
scalar FogSequentialForward.fog[87].dispatcher externalJobs 273328
scalar FogSequentialForward.fog[87].dispatcher remoteJobs 273371
scalar FogSequentialForward.fog[87].dispatcher probeQueries 0
scalar FogSequentialForward.fog[87].dispatcher probeAnswers 0
scalar FogSequentialForward.fog[87].dispatcher droppedJobsSLA 0
scalar FogSequentialForward.fog[87].dispatcher jobs_class_1 289600
scalar FogSequentialForward.fog[87].dispatcher remoteJobs_class_1 273371
scalar FogSequentialForward.fog[87].dispatcher localJobs_class_1 16229
scalar FogSequentialForward.fog[87].server[0] rho 1
scalar FogSequentialForward.fog[87].server[0] congestionRatio 0
scalar FogSequentialForward.fog[87].server[0] totalJobs 16229
scalar FogSequentialForward.fog[87].server[0] droppedJobsQueue 3327
scalar FogSequentialForward.fog[87].server[0] droppedJobsTimout 0
scalar FogSequentialForward.fog[87].server[0] droppedJobsSLA 10494
scalar FogSequentialForward.fog[87].server[0] droppedJobsTotal 13821
scalar FogSequentialForward.fog[88].dispatcher localJobs 16198
scalar FogSequentialForward.fog[88].dispatcher internalJobs 16324
scalar FogSequentialForward.fog[88].dispatcher externalJobs 272472
scalar FogSequentialForward.fog[88].dispatcher remoteJobs 272598
scalar FogSequentialForward.fog[88].dispatcher probeQueries 0
scalar FogSequentialForward.fog[88].dispatcher probeAnswers 0
scalar FogSequentialForward.fog[88].dispatcher droppedJobsSLA 0
scalar FogSequentialForward.fog[88].dispatcher jobs_class_1 288796
scalar FogSequentialForward.fog[88].dispatcher remoteJobs_class_1 272598
scalar FogSequentialForward.fog[88].dispatcher localJobs_class_1 16198
scalar FogSequentialForward.fog[88].server[0] rho 0.99996256828308
scalar FogSequentialForward.fog[88].server[0] congestionRatio 0
scalar FogSequentialForward.fog[88].server[0] totalJobs 16198
scalar FogSequentialForward.fog[88].server[0] droppedJobsQueue 3306
scalar FogSequentialForward.fog[88].server[0] droppedJobsTimout 0
scalar FogSequentialForward.fog[88].server[0] droppedJobsSLA 10512
scalar FogSequentialForward.fog[88].server[0] droppedJobsTotal 13818
scalar FogSequentialForward.fog[89].dispatcher localJobs 16231
scalar FogSequentialForward.fog[89].dispatcher internalJobs 16318
scalar FogSequentialForward.fog[89].dispatcher externalJobs 274484
scalar FogSequentialForward.fog[89].dispatcher remoteJobs 274571
scalar FogSequentialForward.fog[89].dispatcher probeQueries 0
scalar FogSequentialForward.fog[89].dispatcher probeAnswers 0
scalar FogSequentialForward.fog[89].dispatcher droppedJobsSLA 0
scalar FogSequentialForward.fog[89].dispatcher jobs_class_1 290802
scalar FogSequentialForward.fog[89].dispatcher remoteJobs_class_1 274571
scalar FogSequentialForward.fog[89].dispatcher localJobs_class_1 16231
scalar FogSequentialForward.fog[89].server[0] rho 0.99986809492111
scalar FogSequentialForward.fog[89].server[0] congestionRatio 0
scalar FogSequentialForward.fog[89].server[0] totalJobs 16231
scalar FogSequentialForward.fog[89].server[0] droppedJobsQueue 3325
scalar FogSequentialForward.fog[89].server[0] droppedJobsTimout 0
scalar FogSequentialForward.fog[89].server[0] droppedJobsSLA 10552
scalar FogSequentialForward.fog[89].server[0] droppedJobsTotal 13877
scalar FogSequentialForward.fog[90].dispatcher localJobs 16229
scalar FogSequentialForward.fog[90].dispatcher internalJobs 16035
scalar FogSequentialForward.fog[90].dispatcher externalJobs 273570
scalar FogSequentialForward.fog[90].dispatcher remoteJobs 273376
scalar FogSequentialForward.fog[90].dispatcher probeQueries 0
scalar FogSequentialForward.fog[90].dispatcher probeAnswers 0
scalar FogSequentialForward.fog[90].dispatcher droppedJobsSLA 0
scalar FogSequentialForward.fog[90].dispatcher jobs_class_1 289605
scalar FogSequentialForward.fog[90].dispatcher remoteJobs_class_1 273376
scalar FogSequentialForward.fog[90].dispatcher localJobs_class_1 16229
scalar FogSequentialForward.fog[90].server[0] rho 1
scalar FogSequentialForward.fog[90].server[0] congestionRatio 0
scalar FogSequentialForward.fog[90].server[0] totalJobs 16229
scalar FogSequentialForward.fog[90].server[0] droppedJobsQueue 3319
scalar FogSequentialForward.fog[90].server[0] droppedJobsTimout 0
scalar FogSequentialForward.fog[90].server[0] droppedJobsSLA 10512
scalar FogSequentialForward.fog[90].server[0] droppedJobsTotal 13831
scalar FogSequentialForward.fog[91].dispatcher localJobs 16224
scalar FogSequentialForward.fog[91].dispatcher internalJobs 16262
scalar FogSequentialForward.fog[91].dispatcher externalJobs 273716
scalar FogSequentialForward.fog[91].dispatcher remoteJobs 273754
scalar FogSequentialForward.fog[91].dispatcher probeQueries 0
scalar FogSequentialForward.fog[91].dispatcher probeAnswers 0
scalar FogSequentialForward.fog[91].dispatcher droppedJobsSLA 0
scalar FogSequentialForward.fog[91].dispatcher jobs_class_1 289978
scalar FogSequentialForward.fog[91].dispatcher remoteJobs_class_1 273754
scalar FogSequentialForward.fog[91].dispatcher localJobs_class_1 16224
scalar FogSequentialForward.fog[91].server[0] rho 1
scalar FogSequentialForward.fog[91].server[0] congestionRatio 0
scalar FogSequentialForward.fog[91].server[0] totalJobs 16224
scalar FogSequentialForward.fog[91].server[0] droppedJobsQueue 3318
scalar FogSequentialForward.fog[91].server[0] droppedJobsTimout 0
scalar FogSequentialForward.fog[91].server[0] droppedJobsSLA 10422
scalar FogSequentialForward.fog[91].server[0] droppedJobsTotal 13740
scalar FogSequentialForward.fog[92].dispatcher localJobs 16227
scalar FogSequentialForward.fog[92].dispatcher internalJobs 16379
scalar FogSequentialForward.fog[92].dispatcher externalJobs 272673
scalar FogSequentialForward.fog[92].dispatcher remoteJobs 272825
scalar FogSequentialForward.fog[92].dispatcher probeQueries 0
scalar FogSequentialForward.fog[92].dispatcher probeAnswers 0
scalar FogSequentialForward.fog[92].dispatcher droppedJobsSLA 0
scalar FogSequentialForward.fog[92].dispatcher jobs_class_1 289052
scalar FogSequentialForward.fog[92].dispatcher remoteJobs_class_1 272825
scalar FogSequentialForward.fog[92].dispatcher localJobs_class_1 16227
scalar FogSequentialForward.fog[92].server[0] rho 1
scalar FogSequentialForward.fog[92].server[0] congestionRatio 0
scalar FogSequentialForward.fog[92].server[0] totalJobs 16227
scalar FogSequentialForward.fog[92].server[0] droppedJobsQueue 3324
scalar FogSequentialForward.fog[92].server[0] droppedJobsTimout 0
scalar FogSequentialForward.fog[92].server[0] droppedJobsSLA 10580
scalar FogSequentialForward.fog[92].server[0] droppedJobsTotal 13904
scalar FogSequentialForward.fog[93].dispatcher localJobs 16217
scalar FogSequentialForward.fog[93].dispatcher internalJobs 16142
scalar FogSequentialForward.fog[93].dispatcher externalJobs 273275
scalar FogSequentialForward.fog[93].dispatcher remoteJobs 273200
scalar FogSequentialForward.fog[93].dispatcher probeQueries 0
scalar FogSequentialForward.fog[93].dispatcher probeAnswers 0
scalar FogSequentialForward.fog[93].dispatcher droppedJobsSLA 0
scalar FogSequentialForward.fog[93].dispatcher jobs_class_1 289417
scalar FogSequentialForward.fog[93].dispatcher remoteJobs_class_1 273200
scalar FogSequentialForward.fog[93].dispatcher localJobs_class_1 16217
scalar FogSequentialForward.fog[93].server[0] rho 1
scalar FogSequentialForward.fog[93].server[0] congestionRatio 0
scalar FogSequentialForward.fog[93].server[0] totalJobs 16217
scalar FogSequentialForward.fog[93].server[0] droppedJobsQueue 3298
scalar FogSequentialForward.fog[93].server[0] droppedJobsTimout 0
scalar FogSequentialForward.fog[93].server[0] droppedJobsSLA 10444
scalar FogSequentialForward.fog[93].server[0] droppedJobsTotal 13742
scalar FogSequentialForward.fog[94].dispatcher localJobs 16210
scalar FogSequentialForward.fog[94].dispatcher internalJobs 16036
scalar FogSequentialForward.fog[94].dispatcher externalJobs 272827
scalar FogSequentialForward.fog[94].dispatcher remoteJobs 272653
scalar FogSequentialForward.fog[94].dispatcher probeQueries 0
scalar FogSequentialForward.fog[94].dispatcher probeAnswers 0
scalar FogSequentialForward.fog[94].dispatcher droppedJobsSLA 0
scalar FogSequentialForward.fog[94].dispatcher jobs_class_1 288863
scalar FogSequentialForward.fog[94].dispatcher remoteJobs_class_1 272653
scalar FogSequentialForward.fog[94].dispatcher localJobs_class_1 16210
scalar FogSequentialForward.fog[94].server[0] rho 1
scalar FogSequentialForward.fog[94].server[0] congestionRatio 0
scalar FogSequentialForward.fog[94].server[0] totalJobs 16210
scalar FogSequentialForward.fog[94].server[0] droppedJobsQueue 3311
scalar FogSequentialForward.fog[94].server[0] droppedJobsTimout 0
scalar FogSequentialForward.fog[94].server[0] droppedJobsSLA 10488
scalar FogSequentialForward.fog[94].server[0] droppedJobsTotal 13799
scalar FogSequentialForward.fog[95].dispatcher localJobs 16200
scalar FogSequentialForward.fog[95].dispatcher internalJobs 16353
scalar FogSequentialForward.fog[95].dispatcher externalJobs 272388
scalar FogSequentialForward.fog[95].dispatcher remoteJobs 272541
scalar FogSequentialForward.fog[95].dispatcher probeQueries 0
scalar FogSequentialForward.fog[95].dispatcher probeAnswers 0
scalar FogSequentialForward.fog[95].dispatcher droppedJobsSLA 0
scalar FogSequentialForward.fog[95].dispatcher jobs_class_1 288741
scalar FogSequentialForward.fog[95].dispatcher remoteJobs_class_1 272541
scalar FogSequentialForward.fog[95].dispatcher localJobs_class_1 16200
scalar FogSequentialForward.fog[95].server[0] rho 1
scalar FogSequentialForward.fog[95].server[0] congestionRatio 0
scalar FogSequentialForward.fog[95].server[0] totalJobs 16200
scalar FogSequentialForward.fog[95].server[0] droppedJobsQueue 3292
scalar FogSequentialForward.fog[95].server[0] droppedJobsTimout 0
scalar FogSequentialForward.fog[95].server[0] droppedJobsSLA 10420
scalar FogSequentialForward.fog[95].server[0] droppedJobsTotal 13712
scalar FogSequentialForward.fog[96].dispatcher localJobs 16219
scalar FogSequentialForward.fog[96].dispatcher internalJobs 16098
scalar FogSequentialForward.fog[96].dispatcher externalJobs 273094
scalar FogSequentialForward.fog[96].dispatcher remoteJobs 272973
scalar FogSequentialForward.fog[96].dispatcher probeQueries 0
scalar FogSequentialForward.fog[96].dispatcher probeAnswers 0
scalar FogSequentialForward.fog[96].dispatcher droppedJobsSLA 0
scalar FogSequentialForward.fog[96].dispatcher jobs_class_1 289192
scalar FogSequentialForward.fog[96].dispatcher remoteJobs_class_1 272973
scalar FogSequentialForward.fog[96].dispatcher localJobs_class_1 16219
scalar FogSequentialForward.fog[96].server[0] rho 1
scalar FogSequentialForward.fog[96].server[0] congestionRatio 0
scalar FogSequentialForward.fog[96].server[0] totalJobs 16219
scalar FogSequentialForward.fog[96].server[0] droppedJobsQueue 3315
scalar FogSequentialForward.fog[96].server[0] droppedJobsTimout 0
scalar FogSequentialForward.fog[96].server[0] droppedJobsSLA 10451
scalar FogSequentialForward.fog[96].server[0] droppedJobsTotal 13766
scalar FogSequentialForward.fog[97].dispatcher localJobs 16206
scalar FogSequentialForward.fog[97].dispatcher internalJobs 16365
scalar FogSequentialForward.fog[97].dispatcher externalJobs 273334
scalar FogSequentialForward.fog[97].dispatcher remoteJobs 273493
scalar FogSequentialForward.fog[97].dispatcher probeQueries 0
scalar FogSequentialForward.fog[97].dispatcher probeAnswers 0
scalar FogSequentialForward.fog[97].dispatcher droppedJobsSLA 0
scalar FogSequentialForward.fog[97].dispatcher jobs_class_1 289699
scalar FogSequentialForward.fog[97].dispatcher remoteJobs_class_1 273493
scalar FogSequentialForward.fog[97].dispatcher localJobs_class_1 16206
scalar FogSequentialForward.fog[97].server[0] rho 0.99998217821121
scalar FogSequentialForward.fog[97].server[0] congestionRatio 0
scalar FogSequentialForward.fog[97].server[0] totalJobs 16206
scalar FogSequentialForward.fog[97].server[0] droppedJobsQueue 3312
scalar FogSequentialForward.fog[97].server[0] droppedJobsTimout 0
scalar FogSequentialForward.fog[97].server[0] droppedJobsSLA 10513
scalar FogSequentialForward.fog[97].server[0] droppedJobsTotal 13825
scalar FogSequentialForward.fog[98].dispatcher localJobs 16214
scalar FogSequentialForward.fog[98].dispatcher internalJobs 16411
scalar FogSequentialForward.fog[98].dispatcher externalJobs 273268
scalar FogSequentialForward.fog[98].dispatcher remoteJobs 273465
scalar FogSequentialForward.fog[98].dispatcher probeQueries 0
scalar FogSequentialForward.fog[98].dispatcher probeAnswers 0
scalar FogSequentialForward.fog[98].dispatcher droppedJobsSLA 0
scalar FogSequentialForward.fog[98].dispatcher jobs_class_1 289679
scalar FogSequentialForward.fog[98].dispatcher remoteJobs_class_1 273465
scalar FogSequentialForward.fog[98].dispatcher localJobs_class_1 16214
scalar FogSequentialForward.fog[98].server[0] rho 1
scalar FogSequentialForward.fog[98].server[0] congestionRatio 0
scalar FogSequentialForward.fog[98].server[0] totalJobs 16214
scalar FogSequentialForward.fog[98].server[0] droppedJobsQueue 3309
scalar FogSequentialForward.fog[98].server[0] droppedJobsTimout 0
scalar FogSequentialForward.fog[98].server[0] droppedJobsSLA 10511
scalar FogSequentialForward.fog[98].server[0] droppedJobsTotal 13820
scalar FogSequentialForward.fog[99].dispatcher localJobs 16231
scalar FogSequentialForward.fog[99].dispatcher internalJobs 16252
scalar FogSequentialForward.fog[99].dispatcher externalJobs 272431
scalar FogSequentialForward.fog[99].dispatcher remoteJobs 272452
scalar FogSequentialForward.fog[99].dispatcher probeQueries 0
scalar FogSequentialForward.fog[99].dispatcher probeAnswers 0
scalar FogSequentialForward.fog[99].dispatcher droppedJobsSLA 0
scalar FogSequentialForward.fog[99].dispatcher jobs_class_1 288683
scalar FogSequentialForward.fog[99].dispatcher remoteJobs_class_1 272452
scalar FogSequentialForward.fog[99].dispatcher localJobs_class_1 16231
scalar FogSequentialForward.fog[99].server[0] rho 1
scalar FogSequentialForward.fog[99].server[0] congestionRatio 0
scalar FogSequentialForward.fog[99].server[0] totalJobs 16231
scalar FogSequentialForward.fog[99].server[0] droppedJobsQueue 3336
scalar FogSequentialForward.fog[99].server[0] droppedJobsTimout 0
scalar FogSequentialForward.fog[99].server[0] droppedJobsSLA 10570
scalar FogSequentialForward.fog[99].server[0] droppedJobsTotal 13906
scalar FogSequentialForward.sink avg_responseTime_1 15.686011743596
scalar FogSequentialForward.sink p90_responseTime_1 1.580256354744
scalar FogSequentialForward.sink med_responseTime_1 1.580256354744
scalar FogSequentialForward.sink avg_delayTime_1 0
scalar FogSequentialForward.sink p90_delayTime_1 0
scalar FogSequentialForward.sink med_delayTime_1 0
scalar FogSequentialForward.sink avg_queuingTime_1 13.787498878612
scalar FogSequentialForward.sink p90_queuingTime_1 0
scalar FogSequentialForward.sink med_queuingTime_1 0
scalar FogSequentialForward.sink avg_serviceTime_1 1.6817297625323
scalar FogSequentialForward.sink p90_serviceTime_1 1.519693505464
scalar FogSequentialForward.sink med_serviceTime_1 1.519693505464
scalar FogSequentialForward.sink avg_balancerTime_1 0.21678310245247
scalar FogSequentialForward.sink p90_balancerTime_1 0
scalar FogSequentialForward.sink med_balancerTime_1 0
scalar FogSequentialForward.sink avg_balancerCount_1 13.98102409893
scalar FogSequentialForward.sink p90_balancerCount_1 1
scalar FogSequentialForward.sink med_balancerCount_1 1

