version 2
run Fog-mul_10-rho_09-thr_5-0-20190714-07:03:26-107009
attr configname Fog-mul_10-rho_09-thr_5
attr datetime 20190714-07:03:26
attr experiment Fog-mul_10-rho_09-thr_5
attr inifile FogSequentialForward.ini
attr iterationvars ""
attr iterationvarsf ""
attr measurement ""
attr network FogSequentialForward
attr processid 107009
attr repetition 0
attr replication #0
attr resultdir results
attr runnumber 0
attr seedset 0
param FogSequentialForward.proctimeMul 1.0
param FogSequentialForward.rho 0.9
param FogSequentialForward.fog[*].dispatcher.thr 5
param FogSequentialForward.nSources 100
param FogSequentialForward.rho 0.9
param FogSequentialForward.proctimeMul 1.0
param FogSequentialForward.source[*].appId 1
param FogSequentialForward.source[*].realTime true
param FogSequentialForward.source[*].multiHop true
param FogSequentialForward.fog[*].nServers 1
param FogSequentialForward.fog[*].dispatcher.fanOut 1
param FogSequentialForward.fog[*].server[*].timeSlice -1s
param FogSequentialForward.fog[*].server[*].timeout -1s
param FogSequentialForward.fog[*].server[*].capacity 20
param FogSequentialForward.fog[*].server[*].fifo true
param FogSequentialForward.fog[*].server[*].maxServiceTime -1s
param FogSequentialForward.fog[*].dispatcher.thr 1

scalar FogSequentialForward.fog[0].dispatcher localJobs 14765
scalar FogSequentialForward.fog[0].dispatcher internalJobs 16256
scalar FogSequentialForward.fog[0].dispatcher externalJobs 6070997
scalar FogSequentialForward.fog[0].dispatcher remoteJobs 6071074
scalar FogSequentialForward.fog[0].dispatcher probeQueries 0
scalar FogSequentialForward.fog[0].dispatcher probeAnswers 0
scalar FogSequentialForward.fog[0].dispatcher droppedJobsSLA 1414
scalar FogSequentialForward.fog[0].dispatcher jobs_class_1 6087253
scalar FogSequentialForward.fog[0].dispatcher remoteJobs_class_1 6071074
scalar FogSequentialForward.fog[0].dispatcher localJobs_class_1 14765
scalar FogSequentialForward.fog[0].dispatcher droppedJobsSLA_class_1 1414
scalar FogSequentialForward.fog[0].server[0] rho 0.99998766183853
scalar FogSequentialForward.fog[0].server[0] congestionRatio 0
scalar FogSequentialForward.fog[0].server[0] totalJobs 14765
scalar FogSequentialForward.fog[0].server[0] droppedJobsQueue 738
scalar FogSequentialForward.fog[0].server[0] droppedJobsTimout 0
scalar FogSequentialForward.fog[0].server[0] droppedJobsSLA 9045
scalar FogSequentialForward.fog[0].server[0] droppedJobsTotal 9783
scalar FogSequentialForward.fog[1].dispatcher localJobs 14725
scalar FogSequentialForward.fog[1].dispatcher internalJobs 16035
scalar FogSequentialForward.fog[1].dispatcher externalJobs 6072429
scalar FogSequentialForward.fog[1].dispatcher remoteJobs 6072272
scalar FogSequentialForward.fog[1].dispatcher probeQueries 0
scalar FogSequentialForward.fog[1].dispatcher probeAnswers 0
scalar FogSequentialForward.fog[1].dispatcher droppedJobsSLA 1467
scalar FogSequentialForward.fog[1].dispatcher jobs_class_1 6088464
scalar FogSequentialForward.fog[1].dispatcher remoteJobs_class_1 6072272
scalar FogSequentialForward.fog[1].dispatcher localJobs_class_1 14725
scalar FogSequentialForward.fog[1].dispatcher droppedJobsSLA_class_1 1467
scalar FogSequentialForward.fog[1].server[0] rho 0.99998694658279
scalar FogSequentialForward.fog[1].server[0] congestionRatio 0
scalar FogSequentialForward.fog[1].server[0] totalJobs 14725
scalar FogSequentialForward.fog[1].server[0] droppedJobsQueue 736
scalar FogSequentialForward.fog[1].server[0] droppedJobsTimout 0
scalar FogSequentialForward.fog[1].server[0] droppedJobsSLA 9056
scalar FogSequentialForward.fog[1].server[0] droppedJobsTotal 9792
scalar FogSequentialForward.fog[2].dispatcher localJobs 14785
scalar FogSequentialForward.fog[2].dispatcher internalJobs 16031
scalar FogSequentialForward.fog[2].dispatcher externalJobs 6070569
scalar FogSequentialForward.fog[2].dispatcher remoteJobs 6070396
scalar FogSequentialForward.fog[2].dispatcher probeQueries 0
scalar FogSequentialForward.fog[2].dispatcher probeAnswers 0
scalar FogSequentialForward.fog[2].dispatcher droppedJobsSLA 1419
scalar FogSequentialForward.fog[2].dispatcher jobs_class_1 6086600
scalar FogSequentialForward.fog[2].dispatcher remoteJobs_class_1 6070396
scalar FogSequentialForward.fog[2].dispatcher localJobs_class_1 14785
scalar FogSequentialForward.fog[2].dispatcher droppedJobsSLA_class_1 1419
scalar FogSequentialForward.fog[2].server[0] rho 0.99998366832733
scalar FogSequentialForward.fog[2].server[0] congestionRatio 0
scalar FogSequentialForward.fog[2].server[0] totalJobs 14785
scalar FogSequentialForward.fog[2].server[0] droppedJobsQueue 737
scalar FogSequentialForward.fog[2].server[0] droppedJobsTimout 0
scalar FogSequentialForward.fog[2].server[0] droppedJobsSLA 9064
scalar FogSequentialForward.fog[2].server[0] droppedJobsTotal 9801
scalar FogSequentialForward.fog[3].dispatcher localJobs 14736
scalar FogSequentialForward.fog[3].dispatcher internalJobs 16313
scalar FogSequentialForward.fog[3].dispatcher externalJobs 6071472
scalar FogSequentialForward.fog[3].dispatcher remoteJobs 6071592
scalar FogSequentialForward.fog[3].dispatcher probeQueries 0
scalar FogSequentialForward.fog[3].dispatcher probeAnswers 0
scalar FogSequentialForward.fog[3].dispatcher droppedJobsSLA 1457
scalar FogSequentialForward.fog[3].dispatcher jobs_class_1 6087785
scalar FogSequentialForward.fog[3].dispatcher remoteJobs_class_1 6071592
scalar FogSequentialForward.fog[3].dispatcher localJobs_class_1 14736
scalar FogSequentialForward.fog[3].dispatcher droppedJobsSLA_class_1 1457
scalar FogSequentialForward.fog[3].server[0] rho 0.99998766183853
scalar FogSequentialForward.fog[3].server[0] congestionRatio 0
scalar FogSequentialForward.fog[3].server[0] totalJobs 14736
scalar FogSequentialForward.fog[3].server[0] droppedJobsQueue 734
scalar FogSequentialForward.fog[3].server[0] droppedJobsTimout 0
scalar FogSequentialForward.fog[3].server[0] droppedJobsSLA 9028
scalar FogSequentialForward.fog[3].server[0] droppedJobsTotal 9762
scalar FogSequentialForward.fog[4].dispatcher localJobs 14756
scalar FogSequentialForward.fog[4].dispatcher internalJobs 16410
scalar FogSequentialForward.fog[4].dispatcher externalJobs 6069967
scalar FogSequentialForward.fog[4].dispatcher remoteJobs 6070212
scalar FogSequentialForward.fog[4].dispatcher probeQueries 0
scalar FogSequentialForward.fog[4].dispatcher probeAnswers 0
scalar FogSequentialForward.fog[4].dispatcher droppedJobsSLA 1409
scalar FogSequentialForward.fog[4].dispatcher jobs_class_1 6086377
scalar FogSequentialForward.fog[4].dispatcher remoteJobs_class_1 6070212
scalar FogSequentialForward.fog[4].dispatcher localJobs_class_1 14756
scalar FogSequentialForward.fog[4].dispatcher droppedJobsSLA_class_1 1409
scalar FogSequentialForward.fog[4].server[0] rho 0.99992716312408
scalar FogSequentialForward.fog[4].server[0] congestionRatio 0
scalar FogSequentialForward.fog[4].server[0] totalJobs 14756
scalar FogSequentialForward.fog[4].server[0] droppedJobsQueue 736
scalar FogSequentialForward.fog[4].server[0] droppedJobsTimout 0
scalar FogSequentialForward.fog[4].server[0] droppedJobsSLA 9059
scalar FogSequentialForward.fog[4].server[0] droppedJobsTotal 9795
scalar FogSequentialForward.fog[5].dispatcher localJobs 14791
scalar FogSequentialForward.fog[5].dispatcher internalJobs 16237
scalar FogSequentialForward.fog[5].dispatcher externalJobs 6073438
scalar FogSequentialForward.fog[5].dispatcher remoteJobs 6073515
scalar FogSequentialForward.fog[5].dispatcher probeQueries 0
scalar FogSequentialForward.fog[5].dispatcher probeAnswers 0
scalar FogSequentialForward.fog[5].dispatcher droppedJobsSLA 1369
scalar FogSequentialForward.fog[5].dispatcher jobs_class_1 6089675
scalar FogSequentialForward.fog[5].dispatcher remoteJobs_class_1 6073515
scalar FogSequentialForward.fog[5].dispatcher localJobs_class_1 14791
scalar FogSequentialForward.fog[5].dispatcher droppedJobsSLA_class_1 1369
scalar FogSequentialForward.fog[5].server[0] rho 0.99998492002487
scalar FogSequentialForward.fog[5].server[0] congestionRatio 0
scalar FogSequentialForward.fog[5].server[0] totalJobs 14791
scalar FogSequentialForward.fog[5].server[0] droppedJobsQueue 737
scalar FogSequentialForward.fog[5].server[0] droppedJobsTimout 0
scalar FogSequentialForward.fog[5].server[0] droppedJobsSLA 9128
scalar FogSequentialForward.fog[5].server[0] droppedJobsTotal 9865
scalar FogSequentialForward.fog[6].dispatcher localJobs 14788
scalar FogSequentialForward.fog[6].dispatcher internalJobs 16383
scalar FogSequentialForward.fog[6].dispatcher externalJobs 6067634
scalar FogSequentialForward.fog[6].dispatcher remoteJobs 6067826
scalar FogSequentialForward.fog[6].dispatcher probeQueries 0
scalar FogSequentialForward.fog[6].dispatcher probeAnswers 0
scalar FogSequentialForward.fog[6].dispatcher droppedJobsSLA 1403
scalar FogSequentialForward.fog[6].dispatcher jobs_class_1 6084017
scalar FogSequentialForward.fog[6].dispatcher remoteJobs_class_1 6067826
scalar FogSequentialForward.fog[6].dispatcher localJobs_class_1 14788
scalar FogSequentialForward.fog[6].dispatcher droppedJobsSLA_class_1 1403
scalar FogSequentialForward.fog[6].server[0] rho 0.99998396635056
scalar FogSequentialForward.fog[6].server[0] congestionRatio 0
scalar FogSequentialForward.fog[6].server[0] totalJobs 14788
scalar FogSequentialForward.fog[6].server[0] droppedJobsQueue 735
scalar FogSequentialForward.fog[6].server[0] droppedJobsTimout 0
scalar FogSequentialForward.fog[6].server[0] droppedJobsSLA 9053
scalar FogSequentialForward.fog[6].server[0] droppedJobsTotal 9788
scalar FogSequentialForward.fog[7].dispatcher localJobs 14774
scalar FogSequentialForward.fog[7].dispatcher internalJobs 15975
scalar FogSequentialForward.fog[7].dispatcher externalJobs 6072054
scalar FogSequentialForward.fog[7].dispatcher remoteJobs 6071872
scalar FogSequentialForward.fog[7].dispatcher probeQueries 0
scalar FogSequentialForward.fog[7].dispatcher probeAnswers 0
scalar FogSequentialForward.fog[7].dispatcher droppedJobsSLA 1383
scalar FogSequentialForward.fog[7].dispatcher jobs_class_1 6088029
scalar FogSequentialForward.fog[7].dispatcher remoteJobs_class_1 6071872
scalar FogSequentialForward.fog[7].dispatcher localJobs_class_1 14774
scalar FogSequentialForward.fog[7].dispatcher droppedJobsSLA_class_1 1383
scalar FogSequentialForward.fog[7].server[0] rho 0.99998688697815
scalar FogSequentialForward.fog[7].server[0] congestionRatio 0
scalar FogSequentialForward.fog[7].server[0] totalJobs 14774
scalar FogSequentialForward.fog[7].server[0] droppedJobsQueue 735
scalar FogSequentialForward.fog[7].server[0] droppedJobsTimout 0
scalar FogSequentialForward.fog[7].server[0] droppedJobsSLA 9084
scalar FogSequentialForward.fog[7].server[0] droppedJobsTotal 9819
scalar FogSequentialForward.fog[8].dispatcher localJobs 14766
scalar FogSequentialForward.fog[8].dispatcher internalJobs 16017
scalar FogSequentialForward.fog[8].dispatcher externalJobs 6068421
scalar FogSequentialForward.fog[8].dispatcher remoteJobs 6068239
scalar FogSequentialForward.fog[8].dispatcher probeQueries 0
scalar FogSequentialForward.fog[8].dispatcher probeAnswers 0
scalar FogSequentialForward.fog[8].dispatcher droppedJobsSLA 1433
scalar FogSequentialForward.fog[8].dispatcher jobs_class_1 6084438
scalar FogSequentialForward.fog[8].dispatcher remoteJobs_class_1 6068239
scalar FogSequentialForward.fog[8].dispatcher localJobs_class_1 14766
scalar FogSequentialForward.fog[8].dispatcher droppedJobsSLA_class_1 1433
scalar FogSequentialForward.fog[8].server[0] rho 0.99997991323471
scalar FogSequentialForward.fog[8].server[0] congestionRatio 0
scalar FogSequentialForward.fog[8].server[0] totalJobs 14766
scalar FogSequentialForward.fog[8].server[0] droppedJobsQueue 738
scalar FogSequentialForward.fog[8].server[0] droppedJobsTimout 0
scalar FogSequentialForward.fog[8].server[0] droppedJobsSLA 9145
scalar FogSequentialForward.fog[8].server[0] droppedJobsTotal 9883
scalar FogSequentialForward.fog[9].dispatcher localJobs 14789
scalar FogSequentialForward.fog[9].dispatcher internalJobs 16111
scalar FogSequentialForward.fog[9].dispatcher externalJobs 6070225
scalar FogSequentialForward.fog[9].dispatcher remoteJobs 6070101
scalar FogSequentialForward.fog[9].dispatcher probeQueries 0
scalar FogSequentialForward.fog[9].dispatcher probeAnswers 0
scalar FogSequentialForward.fog[9].dispatcher droppedJobsSLA 1446
scalar FogSequentialForward.fog[9].dispatcher jobs_class_1 6086336
scalar FogSequentialForward.fog[9].dispatcher remoteJobs_class_1 6070101
scalar FogSequentialForward.fog[9].dispatcher localJobs_class_1 14789
scalar FogSequentialForward.fog[9].dispatcher droppedJobsSLA_class_1 1446
scalar FogSequentialForward.fog[9].server[0] rho 0.99998641014099
scalar FogSequentialForward.fog[9].server[0] congestionRatio 0
scalar FogSequentialForward.fog[9].server[0] totalJobs 14789
scalar FogSequentialForward.fog[9].server[0] droppedJobsQueue 738
scalar FogSequentialForward.fog[9].server[0] droppedJobsTimout 0
scalar FogSequentialForward.fog[9].server[0] droppedJobsSLA 9127
scalar FogSequentialForward.fog[9].server[0] droppedJobsTotal 9865
scalar FogSequentialForward.fog[10].dispatcher localJobs 14753
scalar FogSequentialForward.fog[10].dispatcher internalJobs 16152
scalar FogSequentialForward.fog[10].dispatcher externalJobs 6070204
scalar FogSequentialForward.fog[10].dispatcher remoteJobs 6070164
scalar FogSequentialForward.fog[10].dispatcher probeQueries 0
scalar FogSequentialForward.fog[10].dispatcher probeAnswers 0
scalar FogSequentialForward.fog[10].dispatcher droppedJobsSLA 1439
scalar FogSequentialForward.fog[10].dispatcher jobs_class_1 6086356
scalar FogSequentialForward.fog[10].dispatcher remoteJobs_class_1 6070164
scalar FogSequentialForward.fog[10].dispatcher localJobs_class_1 14753
scalar FogSequentialForward.fog[10].dispatcher droppedJobsSLA_class_1 1439
scalar FogSequentialForward.fog[10].server[0] rho 0.99998790025711
scalar FogSequentialForward.fog[10].server[0] congestionRatio 0
scalar FogSequentialForward.fog[10].server[0] totalJobs 14753
scalar FogSequentialForward.fog[10].server[0] droppedJobsQueue 735
scalar FogSequentialForward.fog[10].server[0] droppedJobsTimout 0
scalar FogSequentialForward.fog[10].server[0] droppedJobsSLA 9111
scalar FogSequentialForward.fog[10].server[0] droppedJobsTotal 9846
scalar FogSequentialForward.fog[11].dispatcher localJobs 14792
scalar FogSequentialForward.fog[11].dispatcher internalJobs 16204
scalar FogSequentialForward.fog[11].dispatcher externalJobs 6067043
scalar FogSequentialForward.fog[11].dispatcher remoteJobs 6066984
scalar FogSequentialForward.fog[11].dispatcher probeQueries 0
scalar FogSequentialForward.fog[11].dispatcher probeAnswers 0
scalar FogSequentialForward.fog[11].dispatcher droppedJobsSLA 1471
scalar FogSequentialForward.fog[11].dispatcher jobs_class_1 6083247
scalar FogSequentialForward.fog[11].dispatcher remoteJobs_class_1 6066984
scalar FogSequentialForward.fog[11].dispatcher localJobs_class_1 14792
scalar FogSequentialForward.fog[11].dispatcher droppedJobsSLA_class_1 1471
scalar FogSequentialForward.fog[11].server[0] rho 0.99994599819183
scalar FogSequentialForward.fog[11].server[0] congestionRatio 0
scalar FogSequentialForward.fog[11].server[0] totalJobs 14792
scalar FogSequentialForward.fog[11].server[0] droppedJobsQueue 738
scalar FogSequentialForward.fog[11].server[0] droppedJobsTimout 0
scalar FogSequentialForward.fog[11].server[0] droppedJobsSLA 9098
scalar FogSequentialForward.fog[11].server[0] droppedJobsTotal 9836
scalar FogSequentialForward.fog[12].dispatcher localJobs 14725
scalar FogSequentialForward.fog[12].dispatcher internalJobs 16198
scalar FogSequentialForward.fog[12].dispatcher externalJobs 6071277
scalar FogSequentialForward.fog[12].dispatcher remoteJobs 6071294
scalar FogSequentialForward.fog[12].dispatcher probeQueries 0
scalar FogSequentialForward.fog[12].dispatcher probeAnswers 0
scalar FogSequentialForward.fog[12].dispatcher droppedJobsSLA 1456
scalar FogSequentialForward.fog[12].dispatcher jobs_class_1 6087475
scalar FogSequentialForward.fog[12].dispatcher remoteJobs_class_1 6071294
scalar FogSequentialForward.fog[12].dispatcher localJobs_class_1 14725
scalar FogSequentialForward.fog[12].dispatcher droppedJobsSLA_class_1 1456
scalar FogSequentialForward.fog[12].server[0] rho 0.99998527765274
scalar FogSequentialForward.fog[12].server[0] congestionRatio 0
scalar FogSequentialForward.fog[12].server[0] totalJobs 14725
scalar FogSequentialForward.fog[12].server[0] droppedJobsQueue 735
scalar FogSequentialForward.fog[12].server[0] droppedJobsTimout 0
scalar FogSequentialForward.fog[12].server[0] droppedJobsSLA 9023
scalar FogSequentialForward.fog[12].server[0] droppedJobsTotal 9758
scalar FogSequentialForward.fog[13].dispatcher localJobs 14758
scalar FogSequentialForward.fog[13].dispatcher internalJobs 16289
scalar FogSequentialForward.fog[13].dispatcher externalJobs 6073054
scalar FogSequentialForward.fog[13].dispatcher remoteJobs 6073168
scalar FogSequentialForward.fog[13].dispatcher probeQueries 0
scalar FogSequentialForward.fog[13].dispatcher probeAnswers 0
scalar FogSequentialForward.fog[13].dispatcher droppedJobsSLA 1417
scalar FogSequentialForward.fog[13].dispatcher jobs_class_1 6089343
scalar FogSequentialForward.fog[13].dispatcher remoteJobs_class_1 6073168
scalar FogSequentialForward.fog[13].dispatcher localJobs_class_1 14758
scalar FogSequentialForward.fog[13].dispatcher droppedJobsSLA_class_1 1417
scalar FogSequentialForward.fog[13].server[0] rho 0.99998873472214
scalar FogSequentialForward.fog[13].server[0] congestionRatio 0
scalar FogSequentialForward.fog[13].server[0] totalJobs 14758
scalar FogSequentialForward.fog[13].server[0] droppedJobsQueue 737
scalar FogSequentialForward.fog[13].server[0] droppedJobsTimout 0
scalar FogSequentialForward.fog[13].server[0] droppedJobsSLA 9050
scalar FogSequentialForward.fog[13].server[0] droppedJobsTotal 9787
scalar FogSequentialForward.fog[14].dispatcher localJobs 14842
scalar FogSequentialForward.fog[14].dispatcher internalJobs 16257
scalar FogSequentialForward.fog[14].dispatcher externalJobs 6069681
scalar FogSequentialForward.fog[14].dispatcher remoteJobs 6069656
scalar FogSequentialForward.fog[14].dispatcher probeQueries 0
scalar FogSequentialForward.fog[14].dispatcher probeAnswers 0
scalar FogSequentialForward.fog[14].dispatcher droppedJobsSLA 1440
scalar FogSequentialForward.fog[14].dispatcher jobs_class_1 6085938
scalar FogSequentialForward.fog[14].dispatcher remoteJobs_class_1 6069656
scalar FogSequentialForward.fog[14].dispatcher localJobs_class_1 14842
scalar FogSequentialForward.fog[14].dispatcher droppedJobsSLA_class_1 1440
scalar FogSequentialForward.fog[14].server[0] rho 0.99998593330383
scalar FogSequentialForward.fog[14].server[0] congestionRatio 0
scalar FogSequentialForward.fog[14].server[0] totalJobs 14842
scalar FogSequentialForward.fog[14].server[0] droppedJobsQueue 739
scalar FogSequentialForward.fog[14].server[0] droppedJobsTimout 0
scalar FogSequentialForward.fog[14].server[0] droppedJobsSLA 9182
scalar FogSequentialForward.fog[14].server[0] droppedJobsTotal 9921
scalar FogSequentialForward.fog[15].dispatcher localJobs 14738
scalar FogSequentialForward.fog[15].dispatcher internalJobs 16096
scalar FogSequentialForward.fog[15].dispatcher externalJobs 6071453
scalar FogSequentialForward.fog[15].dispatcher remoteJobs 6071428
scalar FogSequentialForward.fog[15].dispatcher probeQueries 0
scalar FogSequentialForward.fog[15].dispatcher probeAnswers 0
scalar FogSequentialForward.fog[15].dispatcher droppedJobsSLA 1383
scalar FogSequentialForward.fog[15].dispatcher jobs_class_1 6087549
scalar FogSequentialForward.fog[15].dispatcher remoteJobs_class_1 6071428
scalar FogSequentialForward.fog[15].dispatcher localJobs_class_1 14738
scalar FogSequentialForward.fog[15].dispatcher droppedJobsSLA_class_1 1383
scalar FogSequentialForward.fog[15].server[0] rho 0.99998760223389
scalar FogSequentialForward.fog[15].server[0] congestionRatio 0
scalar FogSequentialForward.fog[15].server[0] totalJobs 14738
scalar FogSequentialForward.fog[15].server[0] droppedJobsQueue 734
scalar FogSequentialForward.fog[15].server[0] droppedJobsTimout 0
scalar FogSequentialForward.fog[15].server[0] droppedJobsSLA 9065
scalar FogSequentialForward.fog[15].server[0] droppedJobsTotal 9799
scalar FogSequentialForward.fog[16].dispatcher localJobs 14767
scalar FogSequentialForward.fog[16].dispatcher internalJobs 16112
scalar FogSequentialForward.fog[16].dispatcher externalJobs 6069877
scalar FogSequentialForward.fog[16].dispatcher remoteJobs 6069774
scalar FogSequentialForward.fog[16].dispatcher probeQueries 0
scalar FogSequentialForward.fog[16].dispatcher probeAnswers 0
scalar FogSequentialForward.fog[16].dispatcher droppedJobsSLA 1448
scalar FogSequentialForward.fog[16].dispatcher jobs_class_1 6085989
scalar FogSequentialForward.fog[16].dispatcher remoteJobs_class_1 6069774
scalar FogSequentialForward.fog[16].dispatcher localJobs_class_1 14767
scalar FogSequentialForward.fog[16].dispatcher droppedJobsSLA_class_1 1448
scalar FogSequentialForward.fog[16].server[0] rho 0.99998795986176
scalar FogSequentialForward.fog[16].server[0] congestionRatio 0
scalar FogSequentialForward.fog[16].server[0] totalJobs 14767
scalar FogSequentialForward.fog[16].server[0] droppedJobsQueue 736
scalar FogSequentialForward.fog[16].server[0] droppedJobsTimout 0
scalar FogSequentialForward.fog[16].server[0] droppedJobsSLA 9109
scalar FogSequentialForward.fog[16].server[0] droppedJobsTotal 9845
scalar FogSequentialForward.fog[17].dispatcher localJobs 14691
scalar FogSequentialForward.fog[17].dispatcher internalJobs 16179
scalar FogSequentialForward.fog[17].dispatcher externalJobs 6070863
scalar FogSequentialForward.fog[17].dispatcher remoteJobs 6070937
scalar FogSequentialForward.fog[17].dispatcher probeQueries 0
scalar FogSequentialForward.fog[17].dispatcher probeAnswers 0
scalar FogSequentialForward.fog[17].dispatcher droppedJobsSLA 1414
scalar FogSequentialForward.fog[17].dispatcher jobs_class_1 6087042
scalar FogSequentialForward.fog[17].dispatcher remoteJobs_class_1 6070937
scalar FogSequentialForward.fog[17].dispatcher localJobs_class_1 14691
scalar FogSequentialForward.fog[17].dispatcher droppedJobsSLA_class_1 1414
scalar FogSequentialForward.fog[17].server[0] rho 0.99998784065247
scalar FogSequentialForward.fog[17].server[0] congestionRatio 0
scalar FogSequentialForward.fog[17].server[0] totalJobs 14691
scalar FogSequentialForward.fog[17].server[0] droppedJobsQueue 733
scalar FogSequentialForward.fog[17].server[0] droppedJobsTimout 0
scalar FogSequentialForward.fog[17].server[0] droppedJobsSLA 9020
scalar FogSequentialForward.fog[17].server[0] droppedJobsTotal 9753
scalar FogSequentialForward.fog[18].dispatcher localJobs 14774
scalar FogSequentialForward.fog[18].dispatcher internalJobs 16406
scalar FogSequentialForward.fog[18].dispatcher externalJobs 6074434
scalar FogSequentialForward.fog[18].dispatcher remoteJobs 6074650
scalar FogSequentialForward.fog[18].dispatcher probeQueries 0
scalar FogSequentialForward.fog[18].dispatcher probeAnswers 0
scalar FogSequentialForward.fog[18].dispatcher droppedJobsSLA 1416
scalar FogSequentialForward.fog[18].dispatcher jobs_class_1 6090840
scalar FogSequentialForward.fog[18].dispatcher remoteJobs_class_1 6074650
scalar FogSequentialForward.fog[18].dispatcher localJobs_class_1 14774
scalar FogSequentialForward.fog[18].dispatcher droppedJobsSLA_class_1 1416
scalar FogSequentialForward.fog[18].server[0] rho 0.99998337030411
scalar FogSequentialForward.fog[18].server[0] congestionRatio 0
scalar FogSequentialForward.fog[18].server[0] totalJobs 14774
scalar FogSequentialForward.fog[18].server[0] droppedJobsQueue 739
scalar FogSequentialForward.fog[18].server[0] droppedJobsTimout 0
scalar FogSequentialForward.fog[18].server[0] droppedJobsSLA 9145
scalar FogSequentialForward.fog[18].server[0] droppedJobsTotal 9884
scalar FogSequentialForward.fog[19].dispatcher localJobs 14750
scalar FogSequentialForward.fog[19].dispatcher internalJobs 16294
scalar FogSequentialForward.fog[19].dispatcher externalJobs 6071264
scalar FogSequentialForward.fog[19].dispatcher remoteJobs 6071361
scalar FogSequentialForward.fog[19].dispatcher probeQueries 0
scalar FogSequentialForward.fog[19].dispatcher probeAnswers 0
scalar FogSequentialForward.fog[19].dispatcher droppedJobsSLA 1447
scalar FogSequentialForward.fog[19].dispatcher jobs_class_1 6087558
scalar FogSequentialForward.fog[19].dispatcher remoteJobs_class_1 6071361
scalar FogSequentialForward.fog[19].dispatcher localJobs_class_1 14750
scalar FogSequentialForward.fog[19].dispatcher droppedJobsSLA_class_1 1447
scalar FogSequentialForward.fog[19].server[0] rho 0.99998623132706
scalar FogSequentialForward.fog[19].server[0] congestionRatio 0
scalar FogSequentialForward.fog[19].server[0] totalJobs 14750
scalar FogSequentialForward.fog[19].server[0] droppedJobsQueue 736
scalar FogSequentialForward.fog[19].server[0] droppedJobsTimout 0
scalar FogSequentialForward.fog[19].server[0] droppedJobsSLA 9116
scalar FogSequentialForward.fog[19].server[0] droppedJobsTotal 9852
scalar FogSequentialForward.fog[20].dispatcher localJobs 14777
scalar FogSequentialForward.fog[20].dispatcher internalJobs 16420
scalar FogSequentialForward.fog[20].dispatcher externalJobs 6072419
scalar FogSequentialForward.fog[20].dispatcher remoteJobs 6072588
scalar FogSequentialForward.fog[20].dispatcher probeQueries 0
scalar FogSequentialForward.fog[20].dispatcher probeAnswers 0
scalar FogSequentialForward.fog[20].dispatcher droppedJobsSLA 1474
scalar FogSequentialForward.fog[20].dispatcher jobs_class_1 6088839
scalar FogSequentialForward.fog[20].dispatcher remoteJobs_class_1 6072588
scalar FogSequentialForward.fog[20].dispatcher localJobs_class_1 14777
scalar FogSequentialForward.fog[20].dispatcher droppedJobsSLA_class_1 1474
scalar FogSequentialForward.fog[20].server[0] rho 0.99998313188553
scalar FogSequentialForward.fog[20].server[0] congestionRatio 0
scalar FogSequentialForward.fog[20].server[0] totalJobs 14777
scalar FogSequentialForward.fog[20].server[0] droppedJobsQueue 735
scalar FogSequentialForward.fog[20].server[0] droppedJobsTimout 0
scalar FogSequentialForward.fog[20].server[0] droppedJobsSLA 9050
scalar FogSequentialForward.fog[20].server[0] droppedJobsTotal 9785
scalar FogSequentialForward.fog[21].dispatcher localJobs 14837
scalar FogSequentialForward.fog[21].dispatcher internalJobs 16229
scalar FogSequentialForward.fog[21].dispatcher externalJobs 6073520
scalar FogSequentialForward.fog[21].dispatcher remoteJobs 6073434
scalar FogSequentialForward.fog[21].dispatcher probeQueries 0
scalar FogSequentialForward.fog[21].dispatcher probeAnswers 0
scalar FogSequentialForward.fog[21].dispatcher droppedJobsSLA 1478
scalar FogSequentialForward.fog[21].dispatcher jobs_class_1 6089749
scalar FogSequentialForward.fog[21].dispatcher remoteJobs_class_1 6073434
scalar FogSequentialForward.fog[21].dispatcher localJobs_class_1 14837
scalar FogSequentialForward.fog[21].dispatcher droppedJobsSLA_class_1 1478
scalar FogSequentialForward.fog[21].server[0] rho 0.99998497962952
scalar FogSequentialForward.fog[21].server[0] congestionRatio 0
scalar FogSequentialForward.fog[21].server[0] totalJobs 14837
scalar FogSequentialForward.fog[21].server[0] droppedJobsQueue 741
scalar FogSequentialForward.fog[21].server[0] droppedJobsTimout 0
scalar FogSequentialForward.fog[21].server[0] droppedJobsSLA 9145
scalar FogSequentialForward.fog[21].server[0] droppedJobsTotal 9886
scalar FogSequentialForward.fog[22].dispatcher localJobs 14755
scalar FogSequentialForward.fog[22].dispatcher internalJobs 16212
scalar FogSequentialForward.fog[22].dispatcher externalJobs 6067966
scalar FogSequentialForward.fog[22].dispatcher remoteJobs 6068054
scalar FogSequentialForward.fog[22].dispatcher probeQueries 0
scalar FogSequentialForward.fog[22].dispatcher probeAnswers 0
scalar FogSequentialForward.fog[22].dispatcher droppedJobsSLA 1369
scalar FogSequentialForward.fog[22].dispatcher jobs_class_1 6084178
scalar FogSequentialForward.fog[22].dispatcher remoteJobs_class_1 6068054
scalar FogSequentialForward.fog[22].dispatcher localJobs_class_1 14755
scalar FogSequentialForward.fog[22].dispatcher droppedJobsSLA_class_1 1369
scalar FogSequentialForward.fog[22].server[0] rho 0.99998664855957
scalar FogSequentialForward.fog[22].server[0] congestionRatio 0
scalar FogSequentialForward.fog[22].server[0] totalJobs 14755
scalar FogSequentialForward.fog[22].server[0] droppedJobsQueue 737
scalar FogSequentialForward.fog[22].server[0] droppedJobsTimout 0
scalar FogSequentialForward.fog[22].server[0] droppedJobsSLA 9098
scalar FogSequentialForward.fog[22].server[0] droppedJobsTotal 9835
scalar FogSequentialForward.fog[23].dispatcher localJobs 14820
scalar FogSequentialForward.fog[23].dispatcher internalJobs 16190
scalar FogSequentialForward.fog[23].dispatcher externalJobs 6069161
scalar FogSequentialForward.fog[23].dispatcher remoteJobs 6069054
scalar FogSequentialForward.fog[23].dispatcher probeQueries 0
scalar FogSequentialForward.fog[23].dispatcher probeAnswers 0
scalar FogSequentialForward.fog[23].dispatcher droppedJobsSLA 1477
scalar FogSequentialForward.fog[23].dispatcher jobs_class_1 6085351
scalar FogSequentialForward.fog[23].dispatcher remoteJobs_class_1 6069054
scalar FogSequentialForward.fog[23].dispatcher localJobs_class_1 14820
scalar FogSequentialForward.fog[23].dispatcher droppedJobsSLA_class_1 1477
scalar FogSequentialForward.fog[23].server[0] rho 0.99998617172241
scalar FogSequentialForward.fog[23].server[0] congestionRatio 0
scalar FogSequentialForward.fog[23].server[0] totalJobs 14820
scalar FogSequentialForward.fog[23].server[0] droppedJobsQueue 739
scalar FogSequentialForward.fog[23].server[0] droppedJobsTimout 0
scalar FogSequentialForward.fog[23].server[0] droppedJobsSLA 9139
scalar FogSequentialForward.fog[23].server[0] droppedJobsTotal 9878
scalar FogSequentialForward.fog[24].dispatcher localJobs 14826
scalar FogSequentialForward.fog[24].dispatcher internalJobs 16214
scalar FogSequentialForward.fog[24].dispatcher externalJobs 6071742
scalar FogSequentialForward.fog[24].dispatcher remoteJobs 6071724
scalar FogSequentialForward.fog[24].dispatcher probeQueries 0
scalar FogSequentialForward.fog[24].dispatcher probeAnswers 0
scalar FogSequentialForward.fog[24].dispatcher droppedJobsSLA 1406
scalar FogSequentialForward.fog[24].dispatcher jobs_class_1 6087956
scalar FogSequentialForward.fog[24].dispatcher remoteJobs_class_1 6071724
scalar FogSequentialForward.fog[24].dispatcher localJobs_class_1 14826
scalar FogSequentialForward.fog[24].dispatcher droppedJobsSLA_class_1 1406
scalar FogSequentialForward.fog[24].server[0] rho 0.99998474121094
scalar FogSequentialForward.fog[24].server[0] congestionRatio 0
scalar FogSequentialForward.fog[24].server[0] totalJobs 14826
scalar FogSequentialForward.fog[24].server[0] droppedJobsQueue 735
scalar FogSequentialForward.fog[24].server[0] droppedJobsTimout 0
scalar FogSequentialForward.fog[24].server[0] droppedJobsSLA 9081
scalar FogSequentialForward.fog[24].server[0] droppedJobsTotal 9816
scalar FogSequentialForward.fog[25].dispatcher localJobs 14761
scalar FogSequentialForward.fog[25].dispatcher internalJobs 16137
scalar FogSequentialForward.fog[25].dispatcher externalJobs 6072979
scalar FogSequentialForward.fog[25].dispatcher remoteJobs 6073004
scalar FogSequentialForward.fog[25].dispatcher probeQueries 0
scalar FogSequentialForward.fog[25].dispatcher probeAnswers 0
scalar FogSequentialForward.fog[25].dispatcher droppedJobsSLA 1351
scalar FogSequentialForward.fog[25].dispatcher jobs_class_1 6089116
scalar FogSequentialForward.fog[25].dispatcher remoteJobs_class_1 6073004
scalar FogSequentialForward.fog[25].dispatcher localJobs_class_1 14761
scalar FogSequentialForward.fog[25].dispatcher droppedJobsSLA_class_1 1351
scalar FogSequentialForward.fog[25].server[0] rho 0.99998641014099
scalar FogSequentialForward.fog[25].server[0] congestionRatio 0
scalar FogSequentialForward.fog[25].server[0] totalJobs 14761
scalar FogSequentialForward.fog[25].server[0] droppedJobsQueue 735
scalar FogSequentialForward.fog[25].server[0] droppedJobsTimout 0
scalar FogSequentialForward.fog[25].server[0] droppedJobsSLA 9095
scalar FogSequentialForward.fog[25].server[0] droppedJobsTotal 9830
scalar FogSequentialForward.fog[26].dispatcher localJobs 14756
scalar FogSequentialForward.fog[26].dispatcher internalJobs 16056
scalar FogSequentialForward.fog[26].dispatcher externalJobs 6070199
scalar FogSequentialForward.fog[26].dispatcher remoteJobs 6070147
scalar FogSequentialForward.fog[26].dispatcher probeQueries 0
scalar FogSequentialForward.fog[26].dispatcher probeAnswers 0
scalar FogSequentialForward.fog[26].dispatcher droppedJobsSLA 1352
scalar FogSequentialForward.fog[26].dispatcher jobs_class_1 6086255
scalar FogSequentialForward.fog[26].dispatcher remoteJobs_class_1 6070147
scalar FogSequentialForward.fog[26].dispatcher localJobs_class_1 14756
scalar FogSequentialForward.fog[26].dispatcher droppedJobsSLA_class_1 1352
scalar FogSequentialForward.fog[26].server[0] rho 0.99998718500137
scalar FogSequentialForward.fog[26].server[0] congestionRatio 0
scalar FogSequentialForward.fog[26].server[0] totalJobs 14756
scalar FogSequentialForward.fog[26].server[0] droppedJobsQueue 737
scalar FogSequentialForward.fog[26].server[0] droppedJobsTimout 0
scalar FogSequentialForward.fog[26].server[0] droppedJobsSLA 9104
scalar FogSequentialForward.fog[26].server[0] droppedJobsTotal 9841
scalar FogSequentialForward.fog[27].dispatcher localJobs 14773
scalar FogSequentialForward.fog[27].dispatcher internalJobs 16225
scalar FogSequentialForward.fog[27].dispatcher externalJobs 6070066
scalar FogSequentialForward.fog[27].dispatcher remoteJobs 6070082
scalar FogSequentialForward.fog[27].dispatcher probeQueries 0
scalar FogSequentialForward.fog[27].dispatcher probeAnswers 0
scalar FogSequentialForward.fog[27].dispatcher droppedJobsSLA 1436
scalar FogSequentialForward.fog[27].dispatcher jobs_class_1 6086291
scalar FogSequentialForward.fog[27].dispatcher remoteJobs_class_1 6070082
scalar FogSequentialForward.fog[27].dispatcher localJobs_class_1 14773
scalar FogSequentialForward.fog[27].dispatcher droppedJobsSLA_class_1 1436
scalar FogSequentialForward.fog[27].server[0] rho 0.99998205900192
scalar FogSequentialForward.fog[27].server[0] congestionRatio 0
scalar FogSequentialForward.fog[27].server[0] totalJobs 14773
scalar FogSequentialForward.fog[27].server[0] droppedJobsQueue 735
scalar FogSequentialForward.fog[27].server[0] droppedJobsTimout 0
scalar FogSequentialForward.fog[27].server[0] droppedJobsSLA 9076
scalar FogSequentialForward.fog[27].server[0] droppedJobsTotal 9811
scalar FogSequentialForward.fog[28].dispatcher localJobs 14809
scalar FogSequentialForward.fog[28].dispatcher internalJobs 16042
scalar FogSequentialForward.fog[28].dispatcher externalJobs 6073420
scalar FogSequentialForward.fog[28].dispatcher remoteJobs 6073260
scalar FogSequentialForward.fog[28].dispatcher probeQueries 0
scalar FogSequentialForward.fog[28].dispatcher probeAnswers 0
scalar FogSequentialForward.fog[28].dispatcher droppedJobsSLA 1393
scalar FogSequentialForward.fog[28].dispatcher jobs_class_1 6089462
scalar FogSequentialForward.fog[28].dispatcher remoteJobs_class_1 6073260
scalar FogSequentialForward.fog[28].dispatcher localJobs_class_1 14809
scalar FogSequentialForward.fog[28].dispatcher droppedJobsSLA_class_1 1393
scalar FogSequentialForward.fog[28].server[0] rho 0.99998658895493
scalar FogSequentialForward.fog[28].server[0] congestionRatio 0
scalar FogSequentialForward.fog[28].server[0] totalJobs 14809
scalar FogSequentialForward.fog[28].server[0] droppedJobsQueue 738
scalar FogSequentialForward.fog[28].server[0] droppedJobsTimout 0
scalar FogSequentialForward.fog[28].server[0] droppedJobsSLA 9114
scalar FogSequentialForward.fog[28].server[0] droppedJobsTotal 9852
scalar FogSequentialForward.fog[29].dispatcher localJobs 14788
scalar FogSequentialForward.fog[29].dispatcher internalJobs 16314
scalar FogSequentialForward.fog[29].dispatcher externalJobs 6070548
scalar FogSequentialForward.fog[29].dispatcher remoteJobs 6070585
scalar FogSequentialForward.fog[29].dispatcher probeQueries 0
scalar FogSequentialForward.fog[29].dispatcher probeAnswers 0
scalar FogSequentialForward.fog[29].dispatcher droppedJobsSLA 1489
scalar FogSequentialForward.fog[29].dispatcher jobs_class_1 6086862
scalar FogSequentialForward.fog[29].dispatcher remoteJobs_class_1 6070585
scalar FogSequentialForward.fog[29].dispatcher localJobs_class_1 14788
scalar FogSequentialForward.fog[29].dispatcher droppedJobsSLA_class_1 1489
scalar FogSequentialForward.fog[29].server[0] rho 0.99998897314072
scalar FogSequentialForward.fog[29].server[0] congestionRatio 0
scalar FogSequentialForward.fog[29].server[0] totalJobs 14788
scalar FogSequentialForward.fog[29].server[0] droppedJobsQueue 739
scalar FogSequentialForward.fog[29].server[0] droppedJobsTimout 0
scalar FogSequentialForward.fog[29].server[0] droppedJobsSLA 9143
scalar FogSequentialForward.fog[29].server[0] droppedJobsTotal 9882
scalar FogSequentialForward.fog[30].dispatcher localJobs 14799
scalar FogSequentialForward.fog[30].dispatcher internalJobs 16182
scalar FogSequentialForward.fog[30].dispatcher externalJobs 6071641
scalar FogSequentialForward.fog[30].dispatcher remoteJobs 6071565
scalar FogSequentialForward.fog[30].dispatcher probeQueries 0
scalar FogSequentialForward.fog[30].dispatcher probeAnswers 0
scalar FogSequentialForward.fog[30].dispatcher droppedJobsSLA 1459
scalar FogSequentialForward.fog[30].dispatcher jobs_class_1 6087823
scalar FogSequentialForward.fog[30].dispatcher remoteJobs_class_1 6071565
scalar FogSequentialForward.fog[30].dispatcher localJobs_class_1 14799
scalar FogSequentialForward.fog[30].dispatcher droppedJobsSLA_class_1 1459
scalar FogSequentialForward.fog[30].server[0] rho 0.99998623132706
scalar FogSequentialForward.fog[30].server[0] congestionRatio 0
scalar FogSequentialForward.fog[30].server[0] totalJobs 14799
scalar FogSequentialForward.fog[30].server[0] droppedJobsQueue 738
scalar FogSequentialForward.fog[30].server[0] droppedJobsTimout 0
scalar FogSequentialForward.fog[30].server[0] droppedJobsSLA 9151
scalar FogSequentialForward.fog[30].server[0] droppedJobsTotal 9889
scalar FogSequentialForward.fog[31].dispatcher localJobs 14822
scalar FogSequentialForward.fog[31].dispatcher internalJobs 16159
scalar FogSequentialForward.fog[31].dispatcher externalJobs 6075638
scalar FogSequentialForward.fog[31].dispatcher remoteJobs 6075538
scalar FogSequentialForward.fog[31].dispatcher probeQueries 0
scalar FogSequentialForward.fog[31].dispatcher probeAnswers 0
scalar FogSequentialForward.fog[31].dispatcher droppedJobsSLA 1437
scalar FogSequentialForward.fog[31].dispatcher jobs_class_1 6091797
scalar FogSequentialForward.fog[31].dispatcher remoteJobs_class_1 6075538
scalar FogSequentialForward.fog[31].dispatcher localJobs_class_1 14822
scalar FogSequentialForward.fog[31].dispatcher droppedJobsSLA_class_1 1437
scalar FogSequentialForward.fog[31].server[0] rho 0.9999874830246
scalar FogSequentialForward.fog[31].server[0] congestionRatio 0
scalar FogSequentialForward.fog[31].server[0] totalJobs 14822
scalar FogSequentialForward.fog[31].server[0] droppedJobsQueue 740
scalar FogSequentialForward.fog[31].server[0] droppedJobsTimout 0
scalar FogSequentialForward.fog[31].server[0] droppedJobsSLA 9149
scalar FogSequentialForward.fog[31].server[0] droppedJobsTotal 9889
scalar FogSequentialForward.fog[32].dispatcher localJobs 14766
scalar FogSequentialForward.fog[32].dispatcher internalJobs 16326
scalar FogSequentialForward.fog[32].dispatcher externalJobs 6077901
scalar FogSequentialForward.fog[32].dispatcher remoteJobs 6078016
scalar FogSequentialForward.fog[32].dispatcher probeQueries 0
scalar FogSequentialForward.fog[32].dispatcher probeAnswers 0
scalar FogSequentialForward.fog[32].dispatcher droppedJobsSLA 1445
scalar FogSequentialForward.fog[32].dispatcher jobs_class_1 6094227
scalar FogSequentialForward.fog[32].dispatcher remoteJobs_class_1 6078016
scalar FogSequentialForward.fog[32].dispatcher localJobs_class_1 14766
scalar FogSequentialForward.fog[32].dispatcher droppedJobsSLA_class_1 1445
scalar FogSequentialForward.fog[32].server[0] rho 0.99998277425766
scalar FogSequentialForward.fog[32].server[0] congestionRatio 0
scalar FogSequentialForward.fog[32].server[0] totalJobs 14766
scalar FogSequentialForward.fog[32].server[0] droppedJobsQueue 734
scalar FogSequentialForward.fog[32].server[0] droppedJobsTimout 0
scalar FogSequentialForward.fog[32].server[0] droppedJobsSLA 9064
scalar FogSequentialForward.fog[32].server[0] droppedJobsTotal 9798
scalar FogSequentialForward.fog[33].dispatcher localJobs 14818
scalar FogSequentialForward.fog[33].dispatcher internalJobs 16155
scalar FogSequentialForward.fog[33].dispatcher externalJobs 6074630
scalar FogSequentialForward.fog[33].dispatcher remoteJobs 6074481
scalar FogSequentialForward.fog[33].dispatcher probeQueries 0
scalar FogSequentialForward.fog[33].dispatcher probeAnswers 0
scalar FogSequentialForward.fog[33].dispatcher droppedJobsSLA 1486
scalar FogSequentialForward.fog[33].dispatcher jobs_class_1 6090785
scalar FogSequentialForward.fog[33].dispatcher remoteJobs_class_1 6074481
scalar FogSequentialForward.fog[33].dispatcher localJobs_class_1 14818
scalar FogSequentialForward.fog[33].dispatcher droppedJobsSLA_class_1 1486
scalar FogSequentialForward.fog[33].server[0] rho 0.99998599290848
scalar FogSequentialForward.fog[33].server[0] congestionRatio 0
scalar FogSequentialForward.fog[33].server[0] totalJobs 14818
scalar FogSequentialForward.fog[33].server[0] droppedJobsQueue 738
scalar FogSequentialForward.fog[33].server[0] droppedJobsTimout 0
scalar FogSequentialForward.fog[33].server[0] droppedJobsSLA 9144
scalar FogSequentialForward.fog[33].server[0] droppedJobsTotal 9882
scalar FogSequentialForward.fog[34].dispatcher localJobs 14831
scalar FogSequentialForward.fog[34].dispatcher internalJobs 16478
scalar FogSequentialForward.fog[34].dispatcher externalJobs 6073112
scalar FogSequentialForward.fog[34].dispatcher remoteJobs 6073347
scalar FogSequentialForward.fog[34].dispatcher probeQueries 0
scalar FogSequentialForward.fog[34].dispatcher probeAnswers 0
scalar FogSequentialForward.fog[34].dispatcher droppedJobsSLA 1412
scalar FogSequentialForward.fog[34].dispatcher jobs_class_1 6089590
scalar FogSequentialForward.fog[34].dispatcher remoteJobs_class_1 6073347
scalar FogSequentialForward.fog[34].dispatcher localJobs_class_1 14831
scalar FogSequentialForward.fog[34].dispatcher droppedJobsSLA_class_1 1412
scalar FogSequentialForward.fog[34].server[0] rho 0.99995958805084
scalar FogSequentialForward.fog[34].server[0] congestionRatio 0
scalar FogSequentialForward.fog[34].server[0] totalJobs 14831
scalar FogSequentialForward.fog[34].server[0] droppedJobsQueue 740
scalar FogSequentialForward.fog[34].server[0] droppedJobsTimout 0
scalar FogSequentialForward.fog[34].server[0] droppedJobsSLA 9134
scalar FogSequentialForward.fog[34].server[0] droppedJobsTotal 9874
scalar FogSequentialForward.fog[35].dispatcher localJobs 14791
scalar FogSequentialForward.fog[35].dispatcher internalJobs 16081
scalar FogSequentialForward.fog[35].dispatcher externalJobs 6068502
scalar FogSequentialForward.fog[35].dispatcher remoteJobs 6068377
scalar FogSequentialForward.fog[35].dispatcher probeQueries 0
scalar FogSequentialForward.fog[35].dispatcher probeAnswers 0
scalar FogSequentialForward.fog[35].dispatcher droppedJobsSLA 1415
scalar FogSequentialForward.fog[35].dispatcher jobs_class_1 6084583
scalar FogSequentialForward.fog[35].dispatcher remoteJobs_class_1 6068377
scalar FogSequentialForward.fog[35].dispatcher localJobs_class_1 14791
scalar FogSequentialForward.fog[35].dispatcher droppedJobsSLA_class_1 1415
scalar FogSequentialForward.fog[35].server[0] rho 0.99998342990875
scalar FogSequentialForward.fog[35].server[0] congestionRatio 0
scalar FogSequentialForward.fog[35].server[0] totalJobs 14791
scalar FogSequentialForward.fog[35].server[0] droppedJobsQueue 739
scalar FogSequentialForward.fog[35].server[0] droppedJobsTimout 0
scalar FogSequentialForward.fog[35].server[0] droppedJobsSLA 9113
scalar FogSequentialForward.fog[35].server[0] droppedJobsTotal 9852
scalar FogSequentialForward.fog[36].dispatcher localJobs 14771
scalar FogSequentialForward.fog[36].dispatcher internalJobs 16175
scalar FogSequentialForward.fog[36].dispatcher externalJobs 6071346
scalar FogSequentialForward.fog[36].dispatcher remoteJobs 6071307
scalar FogSequentialForward.fog[36].dispatcher probeQueries 0
scalar FogSequentialForward.fog[36].dispatcher probeAnswers 0
scalar FogSequentialForward.fog[36].dispatcher droppedJobsSLA 1443
scalar FogSequentialForward.fog[36].dispatcher jobs_class_1 6087521
scalar FogSequentialForward.fog[36].dispatcher remoteJobs_class_1 6071307
scalar FogSequentialForward.fog[36].dispatcher localJobs_class_1 14771
scalar FogSequentialForward.fog[36].dispatcher droppedJobsSLA_class_1 1443
scalar FogSequentialForward.fog[36].server[0] rho 0.99998480081558
scalar FogSequentialForward.fog[36].server[0] congestionRatio 0
scalar FogSequentialForward.fog[36].server[0] totalJobs 14771
scalar FogSequentialForward.fog[36].server[0] droppedJobsQueue 734
scalar FogSequentialForward.fog[36].server[0] droppedJobsTimout 0
scalar FogSequentialForward.fog[36].server[0] droppedJobsSLA 9058
scalar FogSequentialForward.fog[36].server[0] droppedJobsTotal 9792
scalar FogSequentialForward.fog[37].dispatcher localJobs 14789
scalar FogSequentialForward.fog[37].dispatcher internalJobs 16403
scalar FogSequentialForward.fog[37].dispatcher externalJobs 6077111
scalar FogSequentialForward.fog[37].dispatcher remoteJobs 6077374
scalar FogSequentialForward.fog[37].dispatcher probeQueries 0
scalar FogSequentialForward.fog[37].dispatcher probeAnswers 0
scalar FogSequentialForward.fog[37].dispatcher droppedJobsSLA 1351
scalar FogSequentialForward.fog[37].dispatcher jobs_class_1 6093514
scalar FogSequentialForward.fog[37].dispatcher remoteJobs_class_1 6077374
scalar FogSequentialForward.fog[37].dispatcher localJobs_class_1 14789
scalar FogSequentialForward.fog[37].dispatcher droppedJobsSLA_class_1 1351
scalar FogSequentialForward.fog[37].server[0] rho 0.99999064207077
scalar FogSequentialForward.fog[37].server[0] congestionRatio 0
scalar FogSequentialForward.fog[37].server[0] totalJobs 14789
scalar FogSequentialForward.fog[37].server[0] droppedJobsQueue 740
scalar FogSequentialForward.fog[37].server[0] droppedJobsTimout 0
scalar FogSequentialForward.fog[37].server[0] droppedJobsSLA 9093
scalar FogSequentialForward.fog[37].server[0] droppedJobsTotal 9833
scalar FogSequentialForward.fog[38].dispatcher localJobs 14786
scalar FogSequentialForward.fog[38].dispatcher internalJobs 16233
scalar FogSequentialForward.fog[38].dispatcher externalJobs 6070400
scalar FogSequentialForward.fog[38].dispatcher remoteJobs 6070464
scalar FogSequentialForward.fog[38].dispatcher probeQueries 0
scalar FogSequentialForward.fog[38].dispatcher probeAnswers 0
scalar FogSequentialForward.fog[38].dispatcher droppedJobsSLA 1383
scalar FogSequentialForward.fog[38].dispatcher jobs_class_1 6086633
scalar FogSequentialForward.fog[38].dispatcher remoteJobs_class_1 6070464
scalar FogSequentialForward.fog[38].dispatcher localJobs_class_1 14786
scalar FogSequentialForward.fog[38].dispatcher droppedJobsSLA_class_1 1383
scalar FogSequentialForward.fog[38].server[0] rho 0.99998641014099
scalar FogSequentialForward.fog[38].server[0] congestionRatio 0
scalar FogSequentialForward.fog[38].server[0] totalJobs 14786
scalar FogSequentialForward.fog[38].server[0] droppedJobsQueue 737
scalar FogSequentialForward.fog[38].server[0] droppedJobsTimout 0
scalar FogSequentialForward.fog[38].server[0] droppedJobsSLA 9098
scalar FogSequentialForward.fog[38].server[0] droppedJobsTotal 9835
scalar FogSequentialForward.fog[39].dispatcher localJobs 14744
scalar FogSequentialForward.fog[39].dispatcher internalJobs 16168
scalar FogSequentialForward.fog[39].dispatcher externalJobs 6077599
scalar FogSequentialForward.fog[39].dispatcher remoteJobs 6077591
scalar FogSequentialForward.fog[39].dispatcher probeQueries 0
scalar FogSequentialForward.fog[39].dispatcher probeAnswers 0
scalar FogSequentialForward.fog[39].dispatcher droppedJobsSLA 1432
scalar FogSequentialForward.fog[39].dispatcher jobs_class_1 6093767
scalar FogSequentialForward.fog[39].dispatcher remoteJobs_class_1 6077591
scalar FogSequentialForward.fog[39].dispatcher localJobs_class_1 14744
scalar FogSequentialForward.fog[39].dispatcher droppedJobsSLA_class_1 1432
scalar FogSequentialForward.fog[39].server[0] rho 0.99998533725739
scalar FogSequentialForward.fog[39].server[0] congestionRatio 0
scalar FogSequentialForward.fog[39].server[0] totalJobs 14744
scalar FogSequentialForward.fog[39].server[0] droppedJobsQueue 733
scalar FogSequentialForward.fog[39].server[0] droppedJobsTimout 0
scalar FogSequentialForward.fog[39].server[0] droppedJobsSLA 9064
scalar FogSequentialForward.fog[39].server[0] droppedJobsTotal 9797
scalar FogSequentialForward.fog[40].dispatcher localJobs 14743
scalar FogSequentialForward.fog[40].dispatcher internalJobs 16034
scalar FogSequentialForward.fog[40].dispatcher externalJobs 6070420
scalar FogSequentialForward.fog[40].dispatcher remoteJobs 6070353
scalar FogSequentialForward.fog[40].dispatcher probeQueries 0
scalar FogSequentialForward.fog[40].dispatcher probeAnswers 0
scalar FogSequentialForward.fog[40].dispatcher droppedJobsSLA 1358
scalar FogSequentialForward.fog[40].dispatcher jobs_class_1 6086454
scalar FogSequentialForward.fog[40].dispatcher remoteJobs_class_1 6070353
scalar FogSequentialForward.fog[40].dispatcher localJobs_class_1 14743
scalar FogSequentialForward.fog[40].dispatcher droppedJobsSLA_class_1 1358
scalar FogSequentialForward.fog[40].server[0] rho 0.99998617172241
scalar FogSequentialForward.fog[40].server[0] congestionRatio 0
scalar FogSequentialForward.fog[40].server[0] totalJobs 14743
scalar FogSequentialForward.fog[40].server[0] droppedJobsQueue 737
scalar FogSequentialForward.fog[40].server[0] droppedJobsTimout 0
scalar FogSequentialForward.fog[40].server[0] droppedJobsSLA 9045
scalar FogSequentialForward.fog[40].server[0] droppedJobsTotal 9782
scalar FogSequentialForward.fog[41].dispatcher localJobs 14764
scalar FogSequentialForward.fog[41].dispatcher internalJobs 16105
scalar FogSequentialForward.fog[41].dispatcher externalJobs 6075123
scalar FogSequentialForward.fog[41].dispatcher remoteJobs 6075025
scalar FogSequentialForward.fog[41].dispatcher probeQueries 0
scalar FogSequentialForward.fog[41].dispatcher probeAnswers 0
scalar FogSequentialForward.fog[41].dispatcher droppedJobsSLA 1439
scalar FogSequentialForward.fog[41].dispatcher jobs_class_1 6091228
scalar FogSequentialForward.fog[41].dispatcher remoteJobs_class_1 6075025
scalar FogSequentialForward.fog[41].dispatcher localJobs_class_1 14764
scalar FogSequentialForward.fog[41].dispatcher droppedJobsSLA_class_1 1439
scalar FogSequentialForward.fog[41].server[0] rho 0.99998652935028
scalar FogSequentialForward.fog[41].server[0] congestionRatio 0
scalar FogSequentialForward.fog[41].server[0] totalJobs 14764
scalar FogSequentialForward.fog[41].server[0] droppedJobsQueue 737
scalar FogSequentialForward.fog[41].server[0] droppedJobsTimout 0
scalar FogSequentialForward.fog[41].server[0] droppedJobsSLA 9096
scalar FogSequentialForward.fog[41].server[0] droppedJobsTotal 9833
scalar FogSequentialForward.fog[42].dispatcher localJobs 14791
scalar FogSequentialForward.fog[42].dispatcher internalJobs 16354
scalar FogSequentialForward.fog[42].dispatcher externalJobs 6070165
scalar FogSequentialForward.fog[42].dispatcher remoteJobs 6070372
scalar FogSequentialForward.fog[42].dispatcher probeQueries 0
scalar FogSequentialForward.fog[42].dispatcher probeAnswers 0
scalar FogSequentialForward.fog[42].dispatcher droppedJobsSLA 1356
scalar FogSequentialForward.fog[42].dispatcher jobs_class_1 6086519
scalar FogSequentialForward.fog[42].dispatcher remoteJobs_class_1 6070372
scalar FogSequentialForward.fog[42].dispatcher localJobs_class_1 14791
scalar FogSequentialForward.fog[42].dispatcher droppedJobsSLA_class_1 1356
scalar FogSequentialForward.fog[42].server[0] rho 0.99999010562897
scalar FogSequentialForward.fog[42].server[0] congestionRatio 0
scalar FogSequentialForward.fog[42].server[0] totalJobs 14791
scalar FogSequentialForward.fog[42].server[0] droppedJobsQueue 740
scalar FogSequentialForward.fog[42].server[0] droppedJobsTimout 0
scalar FogSequentialForward.fog[42].server[0] droppedJobsSLA 9115
scalar FogSequentialForward.fog[42].server[0] droppedJobsTotal 9855
scalar FogSequentialForward.fog[43].dispatcher localJobs 14794
scalar FogSequentialForward.fog[43].dispatcher internalJobs 16317
scalar FogSequentialForward.fog[43].dispatcher externalJobs 6076379
scalar FogSequentialForward.fog[43].dispatcher remoteJobs 6076499
scalar FogSequentialForward.fog[43].dispatcher probeQueries 0
scalar FogSequentialForward.fog[43].dispatcher probeAnswers 0
scalar FogSequentialForward.fog[43].dispatcher droppedJobsSLA 1403
scalar FogSequentialForward.fog[43].dispatcher jobs_class_1 6092696
scalar FogSequentialForward.fog[43].dispatcher remoteJobs_class_1 6076499
scalar FogSequentialForward.fog[43].dispatcher localJobs_class_1 14794
scalar FogSequentialForward.fog[43].dispatcher droppedJobsSLA_class_1 1403
scalar FogSequentialForward.fog[43].server[0] rho 0.99998515844345
scalar FogSequentialForward.fog[43].server[0] congestionRatio 0
scalar FogSequentialForward.fog[43].server[0] totalJobs 14794
scalar FogSequentialForward.fog[43].server[0] droppedJobsQueue 738
scalar FogSequentialForward.fog[43].server[0] droppedJobsTimout 0
scalar FogSequentialForward.fog[43].server[0] droppedJobsSLA 9104
scalar FogSequentialForward.fog[43].server[0] droppedJobsTotal 9842
scalar FogSequentialForward.fog[44].dispatcher localJobs 14802
scalar FogSequentialForward.fog[44].dispatcher internalJobs 16359
scalar FogSequentialForward.fog[44].dispatcher externalJobs 6073216
scalar FogSequentialForward.fog[44].dispatcher remoteJobs 6073330
scalar FogSequentialForward.fog[44].dispatcher probeQueries 0
scalar FogSequentialForward.fog[44].dispatcher probeAnswers 0
scalar FogSequentialForward.fog[44].dispatcher droppedJobsSLA 1443
scalar FogSequentialForward.fog[44].dispatcher jobs_class_1 6089575
scalar FogSequentialForward.fog[44].dispatcher remoteJobs_class_1 6073330
scalar FogSequentialForward.fog[44].dispatcher localJobs_class_1 14802
scalar FogSequentialForward.fog[44].dispatcher droppedJobsSLA_class_1 1443
scalar FogSequentialForward.fog[44].server[0] rho 0.99998742341995
scalar FogSequentialForward.fog[44].server[0] congestionRatio 0
scalar FogSequentialForward.fog[44].server[0] totalJobs 14802
scalar FogSequentialForward.fog[44].server[0] droppedJobsQueue 739
scalar FogSequentialForward.fog[44].server[0] droppedJobsTimout 0
scalar FogSequentialForward.fog[44].server[0] droppedJobsSLA 9111
scalar FogSequentialForward.fog[44].server[0] droppedJobsTotal 9850
scalar FogSequentialForward.fog[45].dispatcher localJobs 14817
scalar FogSequentialForward.fog[45].dispatcher internalJobs 16175
scalar FogSequentialForward.fog[45].dispatcher externalJobs 6073904
scalar FogSequentialForward.fog[45].dispatcher remoteJobs 6073805
scalar FogSequentialForward.fog[45].dispatcher probeQueries 0
scalar FogSequentialForward.fog[45].dispatcher probeAnswers 0
scalar FogSequentialForward.fog[45].dispatcher droppedJobsSLA 1457
scalar FogSequentialForward.fog[45].dispatcher jobs_class_1 6090079
scalar FogSequentialForward.fog[45].dispatcher remoteJobs_class_1 6073805
scalar FogSequentialForward.fog[45].dispatcher localJobs_class_1 14817
scalar FogSequentialForward.fog[45].dispatcher droppedJobsSLA_class_1 1457
scalar FogSequentialForward.fog[45].server[0] rho 0.99998378753662
scalar FogSequentialForward.fog[45].server[0] congestionRatio 0
scalar FogSequentialForward.fog[45].server[0] totalJobs 14817
scalar FogSequentialForward.fog[45].server[0] droppedJobsQueue 738
scalar FogSequentialForward.fog[45].server[0] droppedJobsTimout 0
scalar FogSequentialForward.fog[45].server[0] droppedJobsSLA 9173
scalar FogSequentialForward.fog[45].server[0] droppedJobsTotal 9911
scalar FogSequentialForward.fog[46].dispatcher localJobs 14777
scalar FogSequentialForward.fog[46].dispatcher internalJobs 16340
scalar FogSequentialForward.fog[46].dispatcher externalJobs 6070971
scalar FogSequentialForward.fog[46].dispatcher remoteJobs 6071086
scalar FogSequentialForward.fog[46].dispatcher probeQueries 0
scalar FogSequentialForward.fog[46].dispatcher probeAnswers 0
scalar FogSequentialForward.fog[46].dispatcher droppedJobsSLA 1448
scalar FogSequentialForward.fog[46].dispatcher jobs_class_1 6087311
scalar FogSequentialForward.fog[46].dispatcher remoteJobs_class_1 6071086
scalar FogSequentialForward.fog[46].dispatcher localJobs_class_1 14777
scalar FogSequentialForward.fog[46].dispatcher droppedJobsSLA_class_1 1448
scalar FogSequentialForward.fog[46].server[0] rho 0.99996155500412
scalar FogSequentialForward.fog[46].server[0] congestionRatio 0
scalar FogSequentialForward.fog[46].server[0] totalJobs 14777
scalar FogSequentialForward.fog[46].server[0] droppedJobsQueue 740
scalar FogSequentialForward.fog[46].server[0] droppedJobsTimout 0
scalar FogSequentialForward.fog[46].server[0] droppedJobsSLA 9080
scalar FogSequentialForward.fog[46].server[0] droppedJobsTotal 9820
scalar FogSequentialForward.fog[47].dispatcher localJobs 14807
scalar FogSequentialForward.fog[47].dispatcher internalJobs 16280
scalar FogSequentialForward.fog[47].dispatcher externalJobs 6073893
scalar FogSequentialForward.fog[47].dispatcher remoteJobs 6073903
scalar FogSequentialForward.fog[47].dispatcher probeQueries 0
scalar FogSequentialForward.fog[47].dispatcher probeAnswers 0
scalar FogSequentialForward.fog[47].dispatcher droppedJobsSLA 1463
scalar FogSequentialForward.fog[47].dispatcher jobs_class_1 6090173
scalar FogSequentialForward.fog[47].dispatcher remoteJobs_class_1 6073903
scalar FogSequentialForward.fog[47].dispatcher localJobs_class_1 14807
scalar FogSequentialForward.fog[47].dispatcher droppedJobsSLA_class_1 1463
scalar FogSequentialForward.fog[47].server[0] rho 0.99998915195465
scalar FogSequentialForward.fog[47].server[0] congestionRatio 0
scalar FogSequentialForward.fog[47].server[0] totalJobs 14807
scalar FogSequentialForward.fog[47].server[0] droppedJobsQueue 737
scalar FogSequentialForward.fog[47].server[0] droppedJobsTimout 0
scalar FogSequentialForward.fog[47].server[0] droppedJobsSLA 9109
scalar FogSequentialForward.fog[47].server[0] droppedJobsTotal 9846
scalar FogSequentialForward.fog[48].dispatcher localJobs 14705
scalar FogSequentialForward.fog[48].dispatcher internalJobs 16346
scalar FogSequentialForward.fog[48].dispatcher externalJobs 6073181
scalar FogSequentialForward.fog[48].dispatcher remoteJobs 6073398
scalar FogSequentialForward.fog[48].dispatcher probeQueries 0
scalar FogSequentialForward.fog[48].dispatcher probeAnswers 0
scalar FogSequentialForward.fog[48].dispatcher droppedJobsSLA 1424
scalar FogSequentialForward.fog[48].dispatcher jobs_class_1 6089527
scalar FogSequentialForward.fog[48].dispatcher remoteJobs_class_1 6073398
scalar FogSequentialForward.fog[48].dispatcher localJobs_class_1 14705
scalar FogSequentialForward.fog[48].dispatcher droppedJobsSLA_class_1 1424
scalar FogSequentialForward.fog[48].server[0] rho 0.99998527765274
scalar FogSequentialForward.fog[48].server[0] congestionRatio 0
scalar FogSequentialForward.fog[48].server[0] totalJobs 14705
scalar FogSequentialForward.fog[48].server[0] droppedJobsQueue 732
scalar FogSequentialForward.fog[48].server[0] droppedJobsTimout 0
scalar FogSequentialForward.fog[48].server[0] droppedJobsSLA 9029
scalar FogSequentialForward.fog[48].server[0] droppedJobsTotal 9761
scalar FogSequentialForward.fog[49].dispatcher localJobs 14785
scalar FogSequentialForward.fog[49].dispatcher internalJobs 16226
scalar FogSequentialForward.fog[49].dispatcher externalJobs 6071950
scalar FogSequentialForward.fog[49].dispatcher remoteJobs 6071970
scalar FogSequentialForward.fog[49].dispatcher probeQueries 0
scalar FogSequentialForward.fog[49].dispatcher probeAnswers 0
scalar FogSequentialForward.fog[49].dispatcher droppedJobsSLA 1421
scalar FogSequentialForward.fog[49].dispatcher jobs_class_1 6088176
scalar FogSequentialForward.fog[49].dispatcher remoteJobs_class_1 6071970
scalar FogSequentialForward.fog[49].dispatcher localJobs_class_1 14785
scalar FogSequentialForward.fog[49].dispatcher droppedJobsSLA_class_1 1421
scalar FogSequentialForward.fog[49].server[0] rho 0.99998736381531
scalar FogSequentialForward.fog[49].server[0] congestionRatio 0
scalar FogSequentialForward.fog[49].server[0] totalJobs 14785
scalar FogSequentialForward.fog[49].server[0] droppedJobsQueue 737
scalar FogSequentialForward.fog[49].server[0] droppedJobsTimout 0
scalar FogSequentialForward.fog[49].server[0] droppedJobsSLA 9126
scalar FogSequentialForward.fog[49].server[0] droppedJobsTotal 9863
scalar FogSequentialForward.fog[50].dispatcher localJobs 14783
scalar FogSequentialForward.fog[50].dispatcher internalJobs 16293
scalar FogSequentialForward.fog[50].dispatcher externalJobs 6068539
scalar FogSequentialForward.fog[50].dispatcher remoteJobs 6068609
scalar FogSequentialForward.fog[50].dispatcher probeQueries 0
scalar FogSequentialForward.fog[50].dispatcher probeAnswers 0
scalar FogSequentialForward.fog[50].dispatcher droppedJobsSLA 1440
scalar FogSequentialForward.fog[50].dispatcher jobs_class_1 6084832
scalar FogSequentialForward.fog[50].dispatcher remoteJobs_class_1 6068609
scalar FogSequentialForward.fog[50].dispatcher localJobs_class_1 14783
scalar FogSequentialForward.fog[50].dispatcher droppedJobsSLA_class_1 1440
scalar FogSequentialForward.fog[50].server[0] rho 0.99998676776886
scalar FogSequentialForward.fog[50].server[0] congestionRatio 0
scalar FogSequentialForward.fog[50].server[0] totalJobs 14783
scalar FogSequentialForward.fog[50].server[0] droppedJobsQueue 737
scalar FogSequentialForward.fog[50].server[0] droppedJobsTimout 0
scalar FogSequentialForward.fog[50].server[0] droppedJobsSLA 9105
scalar FogSequentialForward.fog[50].server[0] droppedJobsTotal 9842
scalar FogSequentialForward.fog[51].dispatcher localJobs 14788
scalar FogSequentialForward.fog[51].dispatcher internalJobs 16265
scalar FogSequentialForward.fog[51].dispatcher externalJobs 6072187
scalar FogSequentialForward.fog[51].dispatcher remoteJobs 6072238
scalar FogSequentialForward.fog[51].dispatcher probeQueries 0
scalar FogSequentialForward.fog[51].dispatcher probeAnswers 0
scalar FogSequentialForward.fog[51].dispatcher droppedJobsSLA 1426
scalar FogSequentialForward.fog[51].dispatcher jobs_class_1 6088452
scalar FogSequentialForward.fog[51].dispatcher remoteJobs_class_1 6072238
scalar FogSequentialForward.fog[51].dispatcher localJobs_class_1 14788
scalar FogSequentialForward.fog[51].dispatcher droppedJobsSLA_class_1 1426
scalar FogSequentialForward.fog[51].server[0] rho 0.99998623132706
scalar FogSequentialForward.fog[51].server[0] congestionRatio 0
scalar FogSequentialForward.fog[51].server[0] totalJobs 14788
scalar FogSequentialForward.fog[51].server[0] droppedJobsQueue 738
scalar FogSequentialForward.fog[51].server[0] droppedJobsTimout 0
scalar FogSequentialForward.fog[51].server[0] droppedJobsSLA 9126
scalar FogSequentialForward.fog[51].server[0] droppedJobsTotal 9864
scalar FogSequentialForward.fog[52].dispatcher localJobs 14705
scalar FogSequentialForward.fog[52].dispatcher internalJobs 16428
scalar FogSequentialForward.fog[52].dispatcher externalJobs 6070826
scalar FogSequentialForward.fog[52].dispatcher remoteJobs 6071069
scalar FogSequentialForward.fog[52].dispatcher probeQueries 0
scalar FogSequentialForward.fog[52].dispatcher probeAnswers 0
scalar FogSequentialForward.fog[52].dispatcher droppedJobsSLA 1480
scalar FogSequentialForward.fog[52].dispatcher jobs_class_1 6087254
scalar FogSequentialForward.fog[52].dispatcher remoteJobs_class_1 6071069
scalar FogSequentialForward.fog[52].dispatcher localJobs_class_1 14705
scalar FogSequentialForward.fog[52].dispatcher droppedJobsSLA_class_1 1480
scalar FogSequentialForward.fog[52].server[0] rho 0.99998253583908
scalar FogSequentialForward.fog[52].server[0] congestionRatio 0
scalar FogSequentialForward.fog[52].server[0] totalJobs 14705
scalar FogSequentialForward.fog[52].server[0] droppedJobsQueue 732
scalar FogSequentialForward.fog[52].server[0] droppedJobsTimout 0
scalar FogSequentialForward.fog[52].server[0] droppedJobsSLA 9019
scalar FogSequentialForward.fog[52].server[0] droppedJobsTotal 9751
scalar FogSequentialForward.fog[53].dispatcher localJobs 14844
scalar FogSequentialForward.fog[53].dispatcher internalJobs 16181
scalar FogSequentialForward.fog[53].dispatcher externalJobs 6068917
scalar FogSequentialForward.fog[53].dispatcher remoteJobs 6068860
scalar FogSequentialForward.fog[53].dispatcher probeQueries 0
scalar FogSequentialForward.fog[53].dispatcher probeAnswers 0
scalar FogSequentialForward.fog[53].dispatcher droppedJobsSLA 1394
scalar FogSequentialForward.fog[53].dispatcher jobs_class_1 6085098
scalar FogSequentialForward.fog[53].dispatcher remoteJobs_class_1 6068860
scalar FogSequentialForward.fog[53].dispatcher localJobs_class_1 14844
scalar FogSequentialForward.fog[53].dispatcher droppedJobsSLA_class_1 1394
scalar FogSequentialForward.fog[53].server[0] rho 0.99998760223389
scalar FogSequentialForward.fog[53].server[0] congestionRatio 0
scalar FogSequentialForward.fog[53].server[0] totalJobs 14844
scalar FogSequentialForward.fog[53].server[0] droppedJobsQueue 741
scalar FogSequentialForward.fog[53].server[0] droppedJobsTimout 0
scalar FogSequentialForward.fog[53].server[0] droppedJobsSLA 9166
scalar FogSequentialForward.fog[53].server[0] droppedJobsTotal 9907
scalar FogSequentialForward.fog[54].dispatcher localJobs 14786
scalar FogSequentialForward.fog[54].dispatcher internalJobs 16195
scalar FogSequentialForward.fog[54].dispatcher externalJobs 6072416
scalar FogSequentialForward.fog[54].dispatcher remoteJobs 6072405
scalar FogSequentialForward.fog[54].dispatcher probeQueries 0
scalar FogSequentialForward.fog[54].dispatcher probeAnswers 0
scalar FogSequentialForward.fog[54].dispatcher droppedJobsSLA 1420
scalar FogSequentialForward.fog[54].dispatcher jobs_class_1 6088611
scalar FogSequentialForward.fog[54].dispatcher remoteJobs_class_1 6072405
scalar FogSequentialForward.fog[54].dispatcher localJobs_class_1 14786
scalar FogSequentialForward.fog[54].dispatcher droppedJobsSLA_class_1 1420
scalar FogSequentialForward.fog[54].server[0] rho 0.99998646974564
scalar FogSequentialForward.fog[54].server[0] congestionRatio 0
scalar FogSequentialForward.fog[54].server[0] totalJobs 14786
scalar FogSequentialForward.fog[54].server[0] droppedJobsQueue 737
scalar FogSequentialForward.fog[54].server[0] droppedJobsTimout 0
scalar FogSequentialForward.fog[54].server[0] droppedJobsSLA 9066
scalar FogSequentialForward.fog[54].server[0] droppedJobsTotal 9803
scalar FogSequentialForward.fog[55].dispatcher localJobs 14711
scalar FogSequentialForward.fog[55].dispatcher internalJobs 16250
scalar FogSequentialForward.fog[55].dispatcher externalJobs 6069096
scalar FogSequentialForward.fog[55].dispatcher remoteJobs 6069186
scalar FogSequentialForward.fog[55].dispatcher probeQueries 0
scalar FogSequentialForward.fog[55].dispatcher probeAnswers 0
scalar FogSequentialForward.fog[55].dispatcher droppedJobsSLA 1449
scalar FogSequentialForward.fog[55].dispatcher jobs_class_1 6085346
scalar FogSequentialForward.fog[55].dispatcher remoteJobs_class_1 6069186
scalar FogSequentialForward.fog[55].dispatcher localJobs_class_1 14711
scalar FogSequentialForward.fog[55].dispatcher droppedJobsSLA_class_1 1449
scalar FogSequentialForward.fog[55].server[0] rho 0.99998778104782
scalar FogSequentialForward.fog[55].server[0] congestionRatio 0
scalar FogSequentialForward.fog[55].server[0] totalJobs 14711
scalar FogSequentialForward.fog[55].server[0] droppedJobsQueue 734
scalar FogSequentialForward.fog[55].server[0] droppedJobsTimout 0
scalar FogSequentialForward.fog[55].server[0] droppedJobsSLA 9062
scalar FogSequentialForward.fog[55].server[0] droppedJobsTotal 9796
scalar FogSequentialForward.fog[56].dispatcher localJobs 14774
scalar FogSequentialForward.fog[56].dispatcher internalJobs 16043
scalar FogSequentialForward.fog[56].dispatcher externalJobs 6071127
scalar FogSequentialForward.fog[56].dispatcher remoteJobs 6071025
scalar FogSequentialForward.fog[56].dispatcher probeQueries 0
scalar FogSequentialForward.fog[56].dispatcher probeAnswers 0
scalar FogSequentialForward.fog[56].dispatcher droppedJobsSLA 1371
scalar FogSequentialForward.fog[56].dispatcher jobs_class_1 6087170
scalar FogSequentialForward.fog[56].dispatcher remoteJobs_class_1 6071025
scalar FogSequentialForward.fog[56].dispatcher localJobs_class_1 14774
scalar FogSequentialForward.fog[56].dispatcher droppedJobsSLA_class_1 1371
scalar FogSequentialForward.fog[56].server[0] rho 0.9999840259552
scalar FogSequentialForward.fog[56].server[0] congestionRatio 0
scalar FogSequentialForward.fog[56].server[0] totalJobs 14774
scalar FogSequentialForward.fog[56].server[0] droppedJobsQueue 738
scalar FogSequentialForward.fog[56].server[0] droppedJobsTimout 0
scalar FogSequentialForward.fog[56].server[0] droppedJobsSLA 9099
scalar FogSequentialForward.fog[56].server[0] droppedJobsTotal 9837
scalar FogSequentialForward.fog[57].dispatcher localJobs 14811
scalar FogSequentialForward.fog[57].dispatcher internalJobs 16276
scalar FogSequentialForward.fog[57].dispatcher externalJobs 6072235
scalar FogSequentialForward.fog[57].dispatcher remoteJobs 6072249
scalar FogSequentialForward.fog[57].dispatcher probeQueries 0
scalar FogSequentialForward.fog[57].dispatcher probeAnswers 0
scalar FogSequentialForward.fog[57].dispatcher droppedJobsSLA 1451
scalar FogSequentialForward.fog[57].dispatcher jobs_class_1 6088511
scalar FogSequentialForward.fog[57].dispatcher remoteJobs_class_1 6072249
scalar FogSequentialForward.fog[57].dispatcher localJobs_class_1 14811
scalar FogSequentialForward.fog[57].dispatcher droppedJobsSLA_class_1 1451
scalar FogSequentialForward.fog[57].server[0] rho 0.99998110532761
scalar FogSequentialForward.fog[57].server[0] congestionRatio 0
scalar FogSequentialForward.fog[57].server[0] totalJobs 14811
scalar FogSequentialForward.fog[57].server[0] droppedJobsQueue 739
scalar FogSequentialForward.fog[57].server[0] droppedJobsTimout 0
scalar FogSequentialForward.fog[57].server[0] droppedJobsSLA 9124
scalar FogSequentialForward.fog[57].server[0] droppedJobsTotal 9863
scalar FogSequentialForward.fog[58].dispatcher localJobs 14768
scalar FogSequentialForward.fog[58].dispatcher internalJobs 16270
scalar FogSequentialForward.fog[58].dispatcher externalJobs 6068875
scalar FogSequentialForward.fog[58].dispatcher remoteJobs 6068980
scalar FogSequentialForward.fog[58].dispatcher probeQueries 0
scalar FogSequentialForward.fog[58].dispatcher probeAnswers 0
scalar FogSequentialForward.fog[58].dispatcher droppedJobsSLA 1397
scalar FogSequentialForward.fog[58].dispatcher jobs_class_1 6085145
scalar FogSequentialForward.fog[58].dispatcher remoteJobs_class_1 6068980
scalar FogSequentialForward.fog[58].dispatcher localJobs_class_1 14768
scalar FogSequentialForward.fog[58].dispatcher droppedJobsSLA_class_1 1397
scalar FogSequentialForward.fog[58].server[0] rho 0.99998599290848
scalar FogSequentialForward.fog[58].server[0] congestionRatio 0
scalar FogSequentialForward.fog[58].server[0] totalJobs 14768
scalar FogSequentialForward.fog[58].server[0] droppedJobsQueue 738
scalar FogSequentialForward.fog[58].server[0] droppedJobsTimout 0
scalar FogSequentialForward.fog[58].server[0] droppedJobsSLA 9105
scalar FogSequentialForward.fog[58].server[0] droppedJobsTotal 9843
scalar FogSequentialForward.fog[59].dispatcher localJobs 14796
scalar FogSequentialForward.fog[59].dispatcher internalJobs 16042
scalar FogSequentialForward.fog[59].dispatcher externalJobs 6072951
scalar FogSequentialForward.fog[59].dispatcher remoteJobs 6072700
scalar FogSequentialForward.fog[59].dispatcher probeQueries 0
scalar FogSequentialForward.fog[59].dispatcher probeAnswers 0
scalar FogSequentialForward.fog[59].dispatcher droppedJobsSLA 1497
scalar FogSequentialForward.fog[59].dispatcher jobs_class_1 6088993
scalar FogSequentialForward.fog[59].dispatcher remoteJobs_class_1 6072700
scalar FogSequentialForward.fog[59].dispatcher localJobs_class_1 14796
scalar FogSequentialForward.fog[59].dispatcher droppedJobsSLA_class_1 1497
scalar FogSequentialForward.fog[59].server[0] rho 0.99998325109482
scalar FogSequentialForward.fog[59].server[0] congestionRatio 0
scalar FogSequentialForward.fog[59].server[0] totalJobs 14796
scalar FogSequentialForward.fog[59].server[0] droppedJobsQueue 737
scalar FogSequentialForward.fog[59].server[0] droppedJobsTimout 0
scalar FogSequentialForward.fog[59].server[0] droppedJobsSLA 9111
scalar FogSequentialForward.fog[59].server[0] droppedJobsTotal 9848
scalar FogSequentialForward.fog[60].dispatcher localJobs 14778
scalar FogSequentialForward.fog[60].dispatcher internalJobs 16097
scalar FogSequentialForward.fog[60].dispatcher externalJobs 6076606
scalar FogSequentialForward.fog[60].dispatcher remoteJobs 6076468
scalar FogSequentialForward.fog[60].dispatcher probeQueries 0
scalar FogSequentialForward.fog[60].dispatcher probeAnswers 0
scalar FogSequentialForward.fog[60].dispatcher droppedJobsSLA 1457
scalar FogSequentialForward.fog[60].dispatcher jobs_class_1 6092703
scalar FogSequentialForward.fog[60].dispatcher remoteJobs_class_1 6076468
scalar FogSequentialForward.fog[60].dispatcher localJobs_class_1 14778
scalar FogSequentialForward.fog[60].dispatcher droppedJobsSLA_class_1 1457
scalar FogSequentialForward.fog[60].server[0] rho 0.99998134374619
scalar FogSequentialForward.fog[60].server[0] congestionRatio 0
scalar FogSequentialForward.fog[60].server[0] totalJobs 14778
scalar FogSequentialForward.fog[60].server[0] droppedJobsQueue 735
scalar FogSequentialForward.fog[60].server[0] droppedJobsTimout 0
scalar FogSequentialForward.fog[60].server[0] droppedJobsSLA 9115
scalar FogSequentialForward.fog[60].server[0] droppedJobsTotal 9850
scalar FogSequentialForward.fog[61].dispatcher localJobs 14727
scalar FogSequentialForward.fog[61].dispatcher internalJobs 16363
scalar FogSequentialForward.fog[61].dispatcher externalJobs 6068750
scalar FogSequentialForward.fog[61].dispatcher remoteJobs 6068922
scalar FogSequentialForward.fog[61].dispatcher probeQueries 0
scalar FogSequentialForward.fog[61].dispatcher probeAnswers 0
scalar FogSequentialForward.fog[61].dispatcher droppedJobsSLA 1464
scalar FogSequentialForward.fog[61].dispatcher jobs_class_1 6085113
scalar FogSequentialForward.fog[61].dispatcher remoteJobs_class_1 6068922
scalar FogSequentialForward.fog[61].dispatcher localJobs_class_1 14727
scalar FogSequentialForward.fog[61].dispatcher droppedJobsSLA_class_1 1464
scalar FogSequentialForward.fog[61].server[0] rho 0.99998188018799
scalar FogSequentialForward.fog[61].server[0] congestionRatio 0
scalar FogSequentialForward.fog[61].server[0] totalJobs 14727
scalar FogSequentialForward.fog[61].server[0] droppedJobsQueue 734
scalar FogSequentialForward.fog[61].server[0] droppedJobsTimout 0
scalar FogSequentialForward.fog[61].server[0] droppedJobsSLA 9022
scalar FogSequentialForward.fog[61].server[0] droppedJobsTotal 9756
scalar FogSequentialForward.fog[62].dispatcher localJobs 14841
scalar FogSequentialForward.fog[62].dispatcher internalJobs 16258
scalar FogSequentialForward.fog[62].dispatcher externalJobs 6069552
scalar FogSequentialForward.fog[62].dispatcher remoteJobs 6069568
scalar FogSequentialForward.fog[62].dispatcher probeQueries 0
scalar FogSequentialForward.fog[62].dispatcher probeAnswers 0
scalar FogSequentialForward.fog[62].dispatcher droppedJobsSLA 1401
scalar FogSequentialForward.fog[62].dispatcher jobs_class_1 6085810
scalar FogSequentialForward.fog[62].dispatcher remoteJobs_class_1 6069568
scalar FogSequentialForward.fog[62].dispatcher localJobs_class_1 14841
scalar FogSequentialForward.fog[62].dispatcher droppedJobsSLA_class_1 1401
scalar FogSequentialForward.fog[62].server[0] rho 0.9999857544899
scalar FogSequentialForward.fog[62].server[0] congestionRatio 0
scalar FogSequentialForward.fog[62].server[0] totalJobs 14841
scalar FogSequentialForward.fog[62].server[0] droppedJobsQueue 742
scalar FogSequentialForward.fog[62].server[0] droppedJobsTimout 0
scalar FogSequentialForward.fog[62].server[0] droppedJobsSLA 9196
scalar FogSequentialForward.fog[62].server[0] droppedJobsTotal 9938
scalar FogSequentialForward.fog[63].dispatcher localJobs 14836
scalar FogSequentialForward.fog[63].dispatcher internalJobs 15980
scalar FogSequentialForward.fog[63].dispatcher externalJobs 6072446
scalar FogSequentialForward.fog[63].dispatcher remoteJobs 6072168
scalar FogSequentialForward.fog[63].dispatcher probeQueries 0
scalar FogSequentialForward.fog[63].dispatcher probeAnswers 0
scalar FogSequentialForward.fog[63].dispatcher droppedJobsSLA 1422
scalar FogSequentialForward.fog[63].dispatcher jobs_class_1 6088426
scalar FogSequentialForward.fog[63].dispatcher remoteJobs_class_1 6072168
scalar FogSequentialForward.fog[63].dispatcher localJobs_class_1 14836
scalar FogSequentialForward.fog[63].dispatcher droppedJobsSLA_class_1 1422
scalar FogSequentialForward.fog[63].server[0] rho 0.99998587369919
scalar FogSequentialForward.fog[63].server[0] congestionRatio 0
scalar FogSequentialForward.fog[63].server[0] totalJobs 14836
scalar FogSequentialForward.fog[63].server[0] droppedJobsQueue 742
scalar FogSequentialForward.fog[63].server[0] droppedJobsTimout 0
scalar FogSequentialForward.fog[63].server[0] droppedJobsSLA 9111
scalar FogSequentialForward.fog[63].server[0] droppedJobsTotal 9853
scalar FogSequentialForward.fog[64].dispatcher localJobs 14782
scalar FogSequentialForward.fog[64].dispatcher internalJobs 16070
scalar FogSequentialForward.fog[64].dispatcher externalJobs 6071771
scalar FogSequentialForward.fog[64].dispatcher remoteJobs 6071687
scalar FogSequentialForward.fog[64].dispatcher probeQueries 0
scalar FogSequentialForward.fog[64].dispatcher probeAnswers 0
scalar FogSequentialForward.fog[64].dispatcher droppedJobsSLA 1372
scalar FogSequentialForward.fog[64].dispatcher jobs_class_1 6087841
scalar FogSequentialForward.fog[64].dispatcher remoteJobs_class_1 6071687
scalar FogSequentialForward.fog[64].dispatcher localJobs_class_1 14782
scalar FogSequentialForward.fog[64].dispatcher droppedJobsSLA_class_1 1372
scalar FogSequentialForward.fog[64].server[0] rho 0.99998670816422
scalar FogSequentialForward.fog[64].server[0] congestionRatio 0
scalar FogSequentialForward.fog[64].server[0] totalJobs 14782
scalar FogSequentialForward.fog[64].server[0] droppedJobsQueue 738
scalar FogSequentialForward.fog[64].server[0] droppedJobsTimout 0
scalar FogSequentialForward.fog[64].server[0] droppedJobsSLA 9088
scalar FogSequentialForward.fog[64].server[0] droppedJobsTotal 9826
scalar FogSequentialForward.fog[65].dispatcher localJobs 14802
scalar FogSequentialForward.fog[65].dispatcher internalJobs 16224
scalar FogSequentialForward.fog[65].dispatcher externalJobs 6070989
scalar FogSequentialForward.fog[65].dispatcher remoteJobs 6070987
scalar FogSequentialForward.fog[65].dispatcher probeQueries 0
scalar FogSequentialForward.fog[65].dispatcher probeAnswers 0
scalar FogSequentialForward.fog[65].dispatcher droppedJobsSLA 1424
scalar FogSequentialForward.fog[65].dispatcher jobs_class_1 6087213
scalar FogSequentialForward.fog[65].dispatcher remoteJobs_class_1 6070987
scalar FogSequentialForward.fog[65].dispatcher localJobs_class_1 14802
scalar FogSequentialForward.fog[65].dispatcher droppedJobsSLA_class_1 1424
[...]
scalar FogSequentialForward.fog[84].dispatcher probeAnswers 0
scalar FogSequentialForward.fog[84].dispatcher droppedJobsSLA 1443
scalar FogSequentialForward.fog[84].dispatcher jobs_class_1 6090520
scalar FogSequentialForward.fog[84].dispatcher remoteJobs_class_1 6074288
scalar FogSequentialForward.fog[84].dispatcher localJobs_class_1 14789
scalar FogSequentialForward.fog[84].dispatcher droppedJobsSLA_class_1 1443
scalar FogSequentialForward.fog[84].server[0] rho 0.99998736381531
scalar FogSequentialForward.fog[84].server[0] congestionRatio 0
scalar FogSequentialForward.fog[84].server[0] totalJobs 14789
scalar FogSequentialForward.fog[84].server[0] droppedJobsQueue 738
scalar FogSequentialForward.fog[84].server[0] droppedJobsTimout 0
scalar FogSequentialForward.fog[84].server[0] droppedJobsSLA 9026
scalar FogSequentialForward.fog[84].server[0] droppedJobsTotal 9764
scalar FogSequentialForward.fog[85].dispatcher localJobs 14780
scalar FogSequentialForward.fog[85].dispatcher internalJobs 16054
scalar FogSequentialForward.fog[85].dispatcher externalJobs 6072653
scalar FogSequentialForward.fog[85].dispatcher remoteJobs 6072483
scalar FogSequentialForward.fog[85].dispatcher probeQueries 0
scalar FogSequentialForward.fog[85].dispatcher probeAnswers 0
scalar FogSequentialForward.fog[85].dispatcher droppedJobsSLA 1444
scalar FogSequentialForward.fog[85].dispatcher jobs_class_1 6088707
scalar FogSequentialForward.fog[85].dispatcher remoteJobs_class_1 6072483
scalar FogSequentialForward.fog[85].dispatcher localJobs_class_1 14780
scalar FogSequentialForward.fog[85].dispatcher droppedJobsSLA_class_1 1444
scalar FogSequentialForward.fog[85].server[0] rho 0.99998635053635
scalar FogSequentialForward.fog[85].server[0] congestionRatio 0
scalar FogSequentialForward.fog[85].server[0] totalJobs 14780
scalar FogSequentialForward.fog[85].server[0] droppedJobsQueue 739
scalar FogSequentialForward.fog[85].server[0] droppedJobsTimout 0
scalar FogSequentialForward.fog[85].server[0] droppedJobsSLA 9090
scalar FogSequentialForward.fog[85].server[0] droppedJobsTotal 9829
scalar FogSequentialForward.fog[86].dispatcher localJobs 14808
scalar FogSequentialForward.fog[86].dispatcher internalJobs 16179
scalar FogSequentialForward.fog[86].dispatcher externalJobs 6070991
scalar FogSequentialForward.fog[86].dispatcher remoteJobs 6070938
scalar FogSequentialForward.fog[86].dispatcher probeQueries 0
scalar FogSequentialForward.fog[86].dispatcher probeAnswers 0
scalar FogSequentialForward.fog[86].dispatcher droppedJobsSLA 1424
scalar FogSequentialForward.fog[86].dispatcher jobs_class_1 6087170
scalar FogSequentialForward.fog[86].dispatcher remoteJobs_class_1 6070938
scalar FogSequentialForward.fog[86].dispatcher localJobs_class_1 14808
scalar FogSequentialForward.fog[86].dispatcher droppedJobsSLA_class_1 1424
scalar FogSequentialForward.fog[86].server[0] rho 0.99998992681503
scalar FogSequentialForward.fog[86].server[0] congestionRatio 0
scalar FogSequentialForward.fog[86].server[0] totalJobs 14808
scalar FogSequentialForward.fog[86].server[0] droppedJobsQueue 739
scalar FogSequentialForward.fog[86].server[0] droppedJobsTimout 0
scalar FogSequentialForward.fog[86].server[0] droppedJobsSLA 9115
scalar FogSequentialForward.fog[86].server[0] droppedJobsTotal 9854
scalar FogSequentialForward.fog[87].dispatcher localJobs 14809
scalar FogSequentialForward.fog[87].dispatcher internalJobs 16279
scalar FogSequentialForward.fog[87].dispatcher externalJobs 6073861
scalar FogSequentialForward.fog[87].dispatcher remoteJobs 6073908
scalar FogSequentialForward.fog[87].dispatcher probeQueries 0
scalar FogSequentialForward.fog[87].dispatcher probeAnswers 0
scalar FogSequentialForward.fog[87].dispatcher droppedJobsSLA 1423
scalar FogSequentialForward.fog[87].dispatcher jobs_class_1 6090140
scalar FogSequentialForward.fog[87].dispatcher remoteJobs_class_1 6073908
scalar FogSequentialForward.fog[87].dispatcher localJobs_class_1 14809
scalar FogSequentialForward.fog[87].dispatcher droppedJobsSLA_class_1 1423
scalar FogSequentialForward.fog[87].server[0] rho 0.99998593330383
scalar FogSequentialForward.fog[87].server[0] congestionRatio 0
scalar FogSequentialForward.fog[87].server[0] totalJobs 14809
scalar FogSequentialForward.fog[87].server[0] droppedJobsQueue 741
scalar FogSequentialForward.fog[87].server[0] droppedJobsTimout 0
scalar FogSequentialForward.fog[87].server[0] droppedJobsSLA 9103
scalar FogSequentialForward.fog[87].server[0] droppedJobsTotal 9844
scalar FogSequentialForward.fog[88].dispatcher localJobs 14780
scalar FogSequentialForward.fog[88].dispatcher internalJobs 16200
scalar FogSequentialForward.fog[88].dispatcher externalJobs 6073027
scalar FogSequentialForward.fog[88].dispatcher remoteJobs 6073036
scalar FogSequentialForward.fog[88].dispatcher probeQueries 0
scalar FogSequentialForward.fog[88].dispatcher probeAnswers 0
scalar FogSequentialForward.fog[88].dispatcher droppedJobsSLA 1411
scalar FogSequentialForward.fog[88].dispatcher jobs_class_1 6089227
scalar FogSequentialForward.fog[88].dispatcher remoteJobs_class_1 6073036
scalar FogSequentialForward.fog[88].dispatcher localJobs_class_1 14780
scalar FogSequentialForward.fog[88].dispatcher droppedJobsSLA_class_1 1411
scalar FogSequentialForward.fog[88].server[0] rho 0.99998503923416
scalar FogSequentialForward.fog[88].server[0] congestionRatio 0
scalar FogSequentialForward.fog[88].server[0] totalJobs 14780
scalar FogSequentialForward.fog[88].server[0] droppedJobsQueue 738
scalar FogSequentialForward.fog[88].server[0] droppedJobsTimout 0
scalar FogSequentialForward.fog[88].server[0] droppedJobsSLA 9079
scalar FogSequentialForward.fog[88].server[0] droppedJobsTotal 9817
scalar FogSequentialForward.fog[89].dispatcher localJobs 14771
scalar FogSequentialForward.fog[89].dispatcher internalJobs 16303
scalar FogSequentialForward.fog[89].dispatcher externalJobs 6072032
scalar FogSequentialForward.fog[89].dispatcher remoteJobs 6072127
scalar FogSequentialForward.fog[89].dispatcher probeQueries 0
scalar FogSequentialForward.fog[89].dispatcher probeAnswers 0
scalar FogSequentialForward.fog[89].dispatcher droppedJobsSLA 1437
scalar FogSequentialForward.fog[89].dispatcher jobs_class_1 6088335
scalar FogSequentialForward.fog[89].dispatcher remoteJobs_class_1 6072127
scalar FogSequentialForward.fog[89].dispatcher localJobs_class_1 14771
scalar FogSequentialForward.fog[89].dispatcher droppedJobsSLA_class_1 1437
scalar FogSequentialForward.fog[89].server[0] rho 0.99998635053635
scalar FogSequentialForward.fog[89].server[0] congestionRatio 0
scalar FogSequentialForward.fog[89].server[0] totalJobs 14771
scalar FogSequentialForward.fog[89].server[0] droppedJobsQueue 737
scalar FogSequentialForward.fog[89].server[0] droppedJobsTimout 0
scalar FogSequentialForward.fog[89].server[0] droppedJobsSLA 9058
scalar FogSequentialForward.fog[89].server[0] droppedJobsTotal 9795
scalar FogSequentialForward.fog[90].dispatcher localJobs 14795
scalar FogSequentialForward.fog[90].dispatcher internalJobs 16245
scalar FogSequentialForward.fog[90].dispatcher externalJobs 6075734
scalar FogSequentialForward.fog[90].dispatcher remoteJobs 6075742
scalar FogSequentialForward.fog[90].dispatcher probeQueries 0
scalar FogSequentialForward.fog[90].dispatcher probeAnswers 0
scalar FogSequentialForward.fog[90].dispatcher droppedJobsSLA 1442
scalar FogSequentialForward.fog[90].dispatcher jobs_class_1 6091979
scalar FogSequentialForward.fog[90].dispatcher remoteJobs_class_1 6075742
scalar FogSequentialForward.fog[90].dispatcher localJobs_class_1 14795
scalar FogSequentialForward.fog[90].dispatcher droppedJobsSLA_class_1 1442
scalar FogSequentialForward.fog[90].server[0] rho 0.99998450279236
scalar FogSequentialForward.fog[90].server[0] congestionRatio 0
scalar FogSequentialForward.fog[90].server[0] totalJobs 14795
scalar FogSequentialForward.fog[90].server[0] droppedJobsQueue 735
scalar FogSequentialForward.fog[90].server[0] droppedJobsTimout 0
scalar FogSequentialForward.fog[90].server[0] droppedJobsSLA 9044
scalar FogSequentialForward.fog[90].server[0] droppedJobsTotal 9779
scalar FogSequentialForward.fog[91].dispatcher localJobs 14815
scalar FogSequentialForward.fog[91].dispatcher internalJobs 16302
scalar FogSequentialForward.fog[91].dispatcher externalJobs 6076358
scalar FogSequentialForward.fog[91].dispatcher remoteJobs 6076416
scalar FogSequentialForward.fog[91].dispatcher probeQueries 0
scalar FogSequentialForward.fog[91].dispatcher probeAnswers 0
scalar FogSequentialForward.fog[91].dispatcher droppedJobsSLA 1429
scalar FogSequentialForward.fog[91].dispatcher jobs_class_1 6092660
scalar FogSequentialForward.fog[91].dispatcher remoteJobs_class_1 6076416
scalar FogSequentialForward.fog[91].dispatcher localJobs_class_1 14815
scalar FogSequentialForward.fog[91].dispatcher droppedJobsSLA_class_1 1429
scalar FogSequentialForward.fog[91].server[0] rho 0.99992710351944
scalar FogSequentialForward.fog[91].server[0] congestionRatio 0
scalar FogSequentialForward.fog[91].server[0] totalJobs 14815
scalar FogSequentialForward.fog[91].server[0] droppedJobsQueue 738
scalar FogSequentialForward.fog[91].server[0] droppedJobsTimout 0
scalar FogSequentialForward.fog[91].server[0] droppedJobsSLA 9091
scalar FogSequentialForward.fog[91].server[0] droppedJobsTotal 9829
scalar FogSequentialForward.fog[92].dispatcher localJobs 14746
scalar FogSequentialForward.fog[92].dispatcher internalJobs 16159
scalar FogSequentialForward.fog[92].dispatcher externalJobs 6073512
scalar FogSequentialForward.fog[92].dispatcher remoteJobs 6073436
scalar FogSequentialForward.fog[92].dispatcher probeQueries 0
scalar FogSequentialForward.fog[92].dispatcher probeAnswers 0
scalar FogSequentialForward.fog[92].dispatcher droppedJobsSLA 1489
scalar FogSequentialForward.fog[92].dispatcher jobs_class_1 6089671
scalar FogSequentialForward.fog[92].dispatcher remoteJobs_class_1 6073436
scalar FogSequentialForward.fog[92].dispatcher localJobs_class_1 14746
scalar FogSequentialForward.fog[92].dispatcher droppedJobsSLA_class_1 1489
scalar FogSequentialForward.fog[92].server[0] rho 0.99998462200165
scalar FogSequentialForward.fog[92].server[0] congestionRatio 0
scalar FogSequentialForward.fog[92].server[0] totalJobs 14746
scalar FogSequentialForward.fog[92].server[0] droppedJobsQueue 731
scalar FogSequentialForward.fog[92].server[0] droppedJobsTimout 0
scalar FogSequentialForward.fog[92].server[0] droppedJobsSLA 9014
scalar FogSequentialForward.fog[92].server[0] droppedJobsTotal 9745
scalar FogSequentialForward.fog[93].dispatcher localJobs 14750
scalar FogSequentialForward.fog[93].dispatcher internalJobs 16240
scalar FogSequentialForward.fog[93].dispatcher externalJobs 6072789
scalar FogSequentialForward.fog[93].dispatcher remoteJobs 6072838
scalar FogSequentialForward.fog[93].dispatcher probeQueries 0
scalar FogSequentialForward.fog[93].dispatcher probeAnswers 0
scalar FogSequentialForward.fog[93].dispatcher droppedJobsSLA 1441
scalar FogSequentialForward.fog[93].dispatcher jobs_class_1 6089029
scalar FogSequentialForward.fog[93].dispatcher remoteJobs_class_1 6072838
scalar FogSequentialForward.fog[93].dispatcher localJobs_class_1 14750
scalar FogSequentialForward.fog[93].dispatcher droppedJobsSLA_class_1 1441
scalar FogSequentialForward.fog[93].server[0] rho 0.99998182058334
scalar FogSequentialForward.fog[93].server[0] congestionRatio 0
scalar FogSequentialForward.fog[93].server[0] totalJobs 14750
scalar FogSequentialForward.fog[93].server[0] droppedJobsQueue 733
scalar FogSequentialForward.fog[93].server[0] droppedJobsTimout 0
scalar FogSequentialForward.fog[93].server[0] droppedJobsSLA 9042
scalar FogSequentialForward.fog[93].server[0] droppedJobsTotal 9775
scalar FogSequentialForward.fog[94].dispatcher localJobs 14780
scalar FogSequentialForward.fog[94].dispatcher internalJobs 16310
scalar FogSequentialForward.fog[94].dispatcher externalJobs 6072817
scalar FogSequentialForward.fog[94].dispatcher remoteJobs 6072839
scalar FogSequentialForward.fog[94].dispatcher probeQueries 0
scalar FogSequentialForward.fog[94].dispatcher probeAnswers 0
scalar FogSequentialForward.fog[94].dispatcher droppedJobsSLA 1508
scalar FogSequentialForward.fog[94].dispatcher jobs_class_1 6089127
scalar FogSequentialForward.fog[94].dispatcher remoteJobs_class_1 6072839
scalar FogSequentialForward.fog[94].dispatcher localJobs_class_1 14780
scalar FogSequentialForward.fog[94].dispatcher droppedJobsSLA_class_1 1508
scalar FogSequentialForward.fog[94].server[0] rho 0.99998450279236
scalar FogSequentialForward.fog[94].server[0] congestionRatio 0
scalar FogSequentialForward.fog[94].server[0] totalJobs 14780
scalar FogSequentialForward.fog[94].server[0] droppedJobsQueue 737
scalar FogSequentialForward.fog[94].server[0] droppedJobsTimout 0
scalar FogSequentialForward.fog[94].server[0] droppedJobsSLA 9121
scalar FogSequentialForward.fog[94].server[0] droppedJobsTotal 9858
scalar FogSequentialForward.fog[95].dispatcher localJobs 14725
scalar FogSequentialForward.fog[95].dispatcher internalJobs 16415
scalar FogSequentialForward.fog[95].dispatcher externalJobs 6073500
scalar FogSequentialForward.fog[95].dispatcher remoteJobs 6073746
scalar FogSequentialForward.fog[95].dispatcher probeQueries 0
scalar FogSequentialForward.fog[95].dispatcher probeAnswers 0
scalar FogSequentialForward.fog[95].dispatcher droppedJobsSLA 1444
scalar FogSequentialForward.fog[95].dispatcher jobs_class_1 6089915
scalar FogSequentialForward.fog[95].dispatcher remoteJobs_class_1 6073746
scalar FogSequentialForward.fog[95].dispatcher localJobs_class_1 14725
scalar FogSequentialForward.fog[95].dispatcher droppedJobsSLA_class_1 1444
scalar FogSequentialForward.fog[95].server[0] rho 0.99998593330383
scalar FogSequentialForward.fog[95].server[0] congestionRatio 0
scalar FogSequentialForward.fog[95].server[0] totalJobs 14725
scalar FogSequentialForward.fog[95].server[0] droppedJobsQueue 734
scalar FogSequentialForward.fog[95].server[0] droppedJobsTimout 0
scalar FogSequentialForward.fog[95].server[0] droppedJobsSLA 9051
scalar FogSequentialForward.fog[95].server[0] droppedJobsTotal 9785
scalar FogSequentialForward.fog[96].dispatcher localJobs 14847
scalar FogSequentialForward.fog[96].dispatcher internalJobs 16182
scalar FogSequentialForward.fog[96].dispatcher externalJobs 6069544
scalar FogSequentialForward.fog[96].dispatcher remoteJobs 6069484
scalar FogSequentialForward.fog[96].dispatcher probeQueries 0
scalar FogSequentialForward.fog[96].dispatcher probeAnswers 0
scalar FogSequentialForward.fog[96].dispatcher droppedJobsSLA 1395
scalar FogSequentialForward.fog[96].dispatcher jobs_class_1 6085726
scalar FogSequentialForward.fog[96].dispatcher remoteJobs_class_1 6069484
scalar FogSequentialForward.fog[96].dispatcher localJobs_class_1 14847
scalar FogSequentialForward.fog[96].dispatcher droppedJobsSLA_class_1 1395
scalar FogSequentialForward.fog[96].server[0] rho 0.99998807907104
scalar FogSequentialForward.fog[96].server[0] congestionRatio 0
scalar FogSequentialForward.fog[96].server[0] totalJobs 14847
scalar FogSequentialForward.fog[96].server[0] droppedJobsQueue 742
scalar FogSequentialForward.fog[96].server[0] droppedJobsTimout 0
scalar FogSequentialForward.fog[96].server[0] droppedJobsSLA 9121
scalar FogSequentialForward.fog[96].server[0] droppedJobsTotal 9863
scalar FogSequentialForward.fog[97].dispatcher localJobs 14770
scalar FogSequentialForward.fog[97].dispatcher internalJobs 16305
scalar FogSequentialForward.fog[97].dispatcher externalJobs 6070426
scalar FogSequentialForward.fog[97].dispatcher remoteJobs 6070559
scalar FogSequentialForward.fog[97].dispatcher probeQueries 0
scalar FogSequentialForward.fog[97].dispatcher probeAnswers 0
scalar FogSequentialForward.fog[97].dispatcher droppedJobsSLA 1402
scalar FogSequentialForward.fog[97].dispatcher jobs_class_1 6086731
scalar FogSequentialForward.fog[97].dispatcher remoteJobs_class_1 6070559
scalar FogSequentialForward.fog[97].dispatcher localJobs_class_1 14770
scalar FogSequentialForward.fog[97].dispatcher droppedJobsSLA_class_1 1402
scalar FogSequentialForward.fog[97].server[0] rho 0.9999892115593
scalar FogSequentialForward.fog[97].server[0] congestionRatio 0
scalar FogSequentialForward.fog[97].server[0] totalJobs 14770
scalar FogSequentialForward.fog[97].server[0] droppedJobsQueue 738
scalar FogSequentialForward.fog[97].server[0] droppedJobsTimout 0
scalar FogSequentialForward.fog[97].server[0] droppedJobsSLA 9106
scalar FogSequentialForward.fog[97].server[0] droppedJobsTotal 9844
scalar FogSequentialForward.fog[98].dispatcher localJobs 14798
scalar FogSequentialForward.fog[98].dispatcher internalJobs 16145
scalar FogSequentialForward.fog[98].dispatcher externalJobs 6068876
scalar FogSequentialForward.fog[98].dispatcher remoteJobs 6068778
scalar FogSequentialForward.fog[98].dispatcher probeQueries 0
scalar FogSequentialForward.fog[98].dispatcher probeAnswers 0
scalar FogSequentialForward.fog[98].dispatcher droppedJobsSLA 1445
scalar FogSequentialForward.fog[98].dispatcher jobs_class_1 6085021
scalar FogSequentialForward.fog[98].dispatcher remoteJobs_class_1 6068778
scalar FogSequentialForward.fog[98].dispatcher localJobs_class_1 14798
scalar FogSequentialForward.fog[98].dispatcher droppedJobsSLA_class_1 1445
scalar FogSequentialForward.fog[98].server[0] rho 0.99998676776886
scalar FogSequentialForward.fog[98].server[0] congestionRatio 0
scalar FogSequentialForward.fog[98].server[0] totalJobs 14798
scalar FogSequentialForward.fog[98].server[0] droppedJobsQueue 737
scalar FogSequentialForward.fog[98].server[0] droppedJobsTimout 0
scalar FogSequentialForward.fog[98].server[0] droppedJobsSLA 9089
scalar FogSequentialForward.fog[98].server[0] droppedJobsTotal 9826
scalar FogSequentialForward.fog[99].dispatcher localJobs 14713
scalar FogSequentialForward.fog[99].dispatcher internalJobs 16155
scalar FogSequentialForward.fog[99].dispatcher externalJobs 6072113
scalar FogSequentialForward.fog[99].dispatcher remoteJobs 6072103
scalar FogSequentialForward.fog[99].dispatcher probeQueries 0
scalar FogSequentialForward.fog[99].dispatcher probeAnswers 0
scalar FogSequentialForward.fog[99].dispatcher droppedJobsSLA 1452
scalar FogSequentialForward.fog[99].dispatcher jobs_class_1 6088268
scalar FogSequentialForward.fog[99].dispatcher remoteJobs_class_1 6072103
scalar FogSequentialForward.fog[99].dispatcher localJobs_class_1 14713
scalar FogSequentialForward.fog[99].dispatcher droppedJobsSLA_class_1 1452
scalar FogSequentialForward.fog[99].server[0] rho 0.99998354911804
scalar FogSequentialForward.fog[99].server[0] congestionRatio 0
scalar FogSequentialForward.fog[99].server[0] totalJobs 14713
scalar FogSequentialForward.fog[99].server[0] droppedJobsQueue 733
scalar FogSequentialForward.fog[99].server[0] droppedJobsTimout 0
scalar FogSequentialForward.fog[99].server[0] droppedJobsSLA 9032
scalar FogSequentialForward.fog[99].server[0] droppedJobsTotal 9765
scalar FogSequentialForward.sink avg_responseTime_1 11.897028428871
scalar FogSequentialForward.sink p90_responseTime_1 1.594573765181
scalar FogSequentialForward.sink med_responseTime_1 1.594573765181
scalar FogSequentialForward.sink avg_delayTime_1 0
scalar FogSequentialForward.sink p90_delayTime_1 0
scalar FogSequentialForward.sink med_delayTime_1 0
scalar FogSequentialForward.sink avg_queuingTime_1 7.1825022751467
scalar FogSequentialForward.sink p90_queuingTime_1 0
scalar FogSequentialForward.sink med_queuingTime_1 0
scalar FogSequentialForward.sink avg_serviceTime_1 1.6717988461919
scalar FogSequentialForward.sink p90_serviceTime_1 1.507339561069
scalar FogSequentialForward.sink med_serviceTime_1 1.507339561069
scalar FogSequentialForward.sink avg_balancerTime_1 3.0427273075317
scalar FogSequentialForward.sink p90_balancerTime_1 0
scalar FogSequentialForward.sink med_balancerTime_1 0
scalar FogSequentialForward.sink avg_balancerCount_1 183.19923997196
scalar FogSequentialForward.sink p90_balancerCount_1 1
scalar FogSequentialForward.sink med_balancerCount_1 1

