version 2
run Fog-mul_10-rho_02-thr_3-1-20190714-01:54:47-88806
attr configname Fog-mul_10-rho_02-thr_3
attr datetime 20190714-01:54:47
attr experiment Fog-mul_10-rho_02-thr_3
attr inifile FogSequentialForward.ini
attr iterationvars ""
attr iterationvarsf ""
attr measurement ""
attr network FogSequentialForward
attr processid 88806
attr repetition 1
attr replication #1
attr resultdir results
attr runnumber 1
attr seedset 1
param FogSequentialForward.proctimeMul 1.0
param FogSequentialForward.rho 0.2
param FogSequentialForward.fog[*].dispatcher.thr 3
param FogSequentialForward.nSources 100
param FogSequentialForward.rho 0.9
param FogSequentialForward.proctimeMul 1.0
param FogSequentialForward.source[*].appId 1
param FogSequentialForward.source[*].realTime true
param FogSequentialForward.source[*].multiHop true
param FogSequentialForward.fog[*].nServers 1
param FogSequentialForward.fog[*].dispatcher.fanOut 1
param FogSequentialForward.fog[*].server[*].timeSlice -1s
param FogSequentialForward.fog[*].server[*].timeout -1s
param FogSequentialForward.fog[*].server[*].capacity 20
param FogSequentialForward.fog[*].server[*].fifo true
param FogSequentialForward.fog[*].server[*].maxServiceTime -1s
param FogSequentialForward.fog[*].dispatcher.thr 1

scalar FogSequentialForward.fog[0].dispatcher localJobs 3612
scalar FogSequentialForward.fog[0].dispatcher internalJobs 3619
scalar FogSequentialForward.fog[0].dispatcher externalJobs 272
scalar FogSequentialForward.fog[0].dispatcher remoteJobs 279
scalar FogSequentialForward.fog[0].dispatcher probeQueries 0
scalar FogSequentialForward.fog[0].dispatcher probeAnswers 0
scalar FogSequentialForward.fog[0].dispatcher droppedJobsSLA 0
scalar FogSequentialForward.fog[0].dispatcher jobs_class_1 3891
scalar FogSequentialForward.fog[0].dispatcher remoteJobs_class_1 279
scalar FogSequentialForward.fog[0].dispatcher localJobs_class_1 3612
scalar FogSequentialForward.fog[0].server[0] rho 0.55835998058319
scalar FogSequentialForward.fog[0].server[0] congestionRatio 0
scalar FogSequentialForward.fog[0].server[0] totalJobs 3612
scalar FogSequentialForward.fog[0].server[0] droppedJobsQueue 0
scalar FogSequentialForward.fog[0].server[0] droppedJobsTimout 0
scalar FogSequentialForward.fog[0].server[0] droppedJobsSLA 0
scalar FogSequentialForward.fog[0].server[0] droppedJobsTotal 0
scalar FogSequentialForward.fog[1].dispatcher localJobs 3641
scalar FogSequentialForward.fog[1].dispatcher internalJobs 3676
scalar FogSequentialForward.fog[1].dispatcher externalJobs 276
scalar FogSequentialForward.fog[1].dispatcher remoteJobs 311
scalar FogSequentialForward.fog[1].dispatcher probeQueries 0
scalar FogSequentialForward.fog[1].dispatcher probeAnswers 0
scalar FogSequentialForward.fog[1].dispatcher droppedJobsSLA 0
scalar FogSequentialForward.fog[1].dispatcher jobs_class_1 3952
scalar FogSequentialForward.fog[1].dispatcher remoteJobs_class_1 311
scalar FogSequentialForward.fog[1].dispatcher localJobs_class_1 3641
scalar FogSequentialForward.fog[1].server[0] rho 0.56262820959091
scalar FogSequentialForward.fog[1].server[0] congestionRatio 0
scalar FogSequentialForward.fog[1].server[0] totalJobs 3641
scalar FogSequentialForward.fog[1].server[0] droppedJobsQueue 0
scalar FogSequentialForward.fog[1].server[0] droppedJobsTimout 0
scalar FogSequentialForward.fog[1].server[0] droppedJobsSLA 0
scalar FogSequentialForward.fog[1].server[0] droppedJobsTotal 0
scalar FogSequentialForward.fog[2].dispatcher localJobs 3648
scalar FogSequentialForward.fog[2].dispatcher internalJobs 3624
scalar FogSequentialForward.fog[2].dispatcher externalJobs 292
scalar FogSequentialForward.fog[2].dispatcher remoteJobs 268
scalar FogSequentialForward.fog[2].dispatcher probeQueries 0
scalar FogSequentialForward.fog[2].dispatcher probeAnswers 0
scalar FogSequentialForward.fog[2].dispatcher droppedJobsSLA 0
scalar FogSequentialForward.fog[2].dispatcher jobs_class_1 3916
scalar FogSequentialForward.fog[2].dispatcher remoteJobs_class_1 268
scalar FogSequentialForward.fog[2].dispatcher localJobs_class_1 3648
scalar FogSequentialForward.fog[2].server[0] rho 0.56418138742447
scalar FogSequentialForward.fog[2].server[0] congestionRatio 0
scalar FogSequentialForward.fog[2].server[0] totalJobs 3648
scalar FogSequentialForward.fog[2].server[0] droppedJobsQueue 0
scalar FogSequentialForward.fog[2].server[0] droppedJobsTimout 0
scalar FogSequentialForward.fog[2].server[0] droppedJobsSLA 0
scalar FogSequentialForward.fog[2].server[0] droppedJobsTotal 0
scalar FogSequentialForward.fog[3].dispatcher localJobs 3688
scalar FogSequentialForward.fog[3].dispatcher internalJobs 3701
scalar FogSequentialForward.fog[3].dispatcher externalJobs 297
scalar FogSequentialForward.fog[3].dispatcher remoteJobs 310
scalar FogSequentialForward.fog[3].dispatcher probeQueries 0
scalar FogSequentialForward.fog[3].dispatcher probeAnswers 0
scalar FogSequentialForward.fog[3].dispatcher droppedJobsSLA 0
scalar FogSequentialForward.fog[3].dispatcher jobs_class_1 3998
scalar FogSequentialForward.fog[3].dispatcher remoteJobs_class_1 310
scalar FogSequentialForward.fog[3].dispatcher localJobs_class_1 3688
scalar FogSequentialForward.fog[3].server[0] rho 0.57042521238327
scalar FogSequentialForward.fog[3].server[0] congestionRatio 0
scalar FogSequentialForward.fog[3].server[0] totalJobs 3688
scalar FogSequentialForward.fog[3].server[0] droppedJobsQueue 0
scalar FogSequentialForward.fog[3].server[0] droppedJobsTimout 0
scalar FogSequentialForward.fog[3].server[0] droppedJobsSLA 0
scalar FogSequentialForward.fog[3].server[0] droppedJobsTotal 0
scalar FogSequentialForward.fog[4].dispatcher localJobs 3581
scalar FogSequentialForward.fog[4].dispatcher internalJobs 3625
scalar FogSequentialForward.fog[4].dispatcher externalJobs 256
scalar FogSequentialForward.fog[4].dispatcher remoteJobs 300
scalar FogSequentialForward.fog[4].dispatcher probeQueries 0
scalar FogSequentialForward.fog[4].dispatcher probeAnswers 0
scalar FogSequentialForward.fog[4].dispatcher droppedJobsSLA 0
scalar FogSequentialForward.fog[4].dispatcher jobs_class_1 3881
scalar FogSequentialForward.fog[4].dispatcher remoteJobs_class_1 300
scalar FogSequentialForward.fog[4].dispatcher localJobs_class_1 3581
scalar FogSequentialForward.fog[4].server[0] rho 0.55358421802521
scalar FogSequentialForward.fog[4].server[0] congestionRatio 0
scalar FogSequentialForward.fog[4].server[0] totalJobs 3581
scalar FogSequentialForward.fog[4].server[0] droppedJobsQueue 0
scalar FogSequentialForward.fog[4].server[0] droppedJobsTimout 0
scalar FogSequentialForward.fog[4].server[0] droppedJobsSLA 0
scalar FogSequentialForward.fog[4].server[0] droppedJobsTotal 0
scalar FogSequentialForward.fog[5].dispatcher localJobs 3569
scalar FogSequentialForward.fog[5].dispatcher internalJobs 3515
scalar FogSequentialForward.fog[5].dispatcher externalJobs 293
scalar FogSequentialForward.fog[5].dispatcher remoteJobs 239
scalar FogSequentialForward.fog[5].dispatcher probeQueries 0
scalar FogSequentialForward.fog[5].dispatcher probeAnswers 0
scalar FogSequentialForward.fog[5].dispatcher droppedJobsSLA 0
scalar FogSequentialForward.fog[5].dispatcher jobs_class_1 3808
scalar FogSequentialForward.fog[5].dispatcher remoteJobs_class_1 239
scalar FogSequentialForward.fog[5].dispatcher localJobs_class_1 3569
scalar FogSequentialForward.fog[5].server[0] rho 0.55202329158783
scalar FogSequentialForward.fog[5].server[0] congestionRatio 0
scalar FogSequentialForward.fog[5].server[0] totalJobs 3569
scalar FogSequentialForward.fog[5].server[0] droppedJobsQueue 0
scalar FogSequentialForward.fog[5].server[0] droppedJobsTimout 0
scalar FogSequentialForward.fog[5].server[0] droppedJobsSLA 0
scalar FogSequentialForward.fog[5].server[0] droppedJobsTotal 0
scalar FogSequentialForward.fog[6].dispatcher localJobs 3604
scalar FogSequentialForward.fog[6].dispatcher internalJobs 3568
scalar FogSequentialForward.fog[6].dispatcher externalJobs 297
scalar FogSequentialForward.fog[6].dispatcher remoteJobs 261
scalar FogSequentialForward.fog[6].dispatcher probeQueries 0
scalar FogSequentialForward.fog[6].dispatcher probeAnswers 0
scalar FogSequentialForward.fog[6].dispatcher droppedJobsSLA 0
scalar FogSequentialForward.fog[6].dispatcher jobs_class_1 3865
scalar FogSequentialForward.fog[6].dispatcher remoteJobs_class_1 261
scalar FogSequentialForward.fog[6].dispatcher localJobs_class_1 3604
scalar FogSequentialForward.fog[6].server[0] rho 0.55707556009293
scalar FogSequentialForward.fog[6].server[0] congestionRatio 0
scalar FogSequentialForward.fog[6].server[0] totalJobs 3604
scalar FogSequentialForward.fog[6].server[0] droppedJobsQueue 0
scalar FogSequentialForward.fog[6].server[0] droppedJobsTimout 0
scalar FogSequentialForward.fog[6].server[0] droppedJobsSLA 0
scalar FogSequentialForward.fog[6].server[0] droppedJobsTotal 0
scalar FogSequentialForward.fog[7].dispatcher localJobs 3620
scalar FogSequentialForward.fog[7].dispatcher internalJobs 3605
scalar FogSequentialForward.fog[7].dispatcher externalJobs 270
scalar FogSequentialForward.fog[7].dispatcher remoteJobs 255
scalar FogSequentialForward.fog[7].dispatcher probeQueries 0
scalar FogSequentialForward.fog[7].dispatcher probeAnswers 0
scalar FogSequentialForward.fog[7].dispatcher droppedJobsSLA 0
scalar FogSequentialForward.fog[7].dispatcher jobs_class_1 3875
scalar FogSequentialForward.fog[7].dispatcher remoteJobs_class_1 255
scalar FogSequentialForward.fog[7].dispatcher localJobs_class_1 3620
scalar FogSequentialForward.fog[7].server[0] rho 0.55989015102386
scalar FogSequentialForward.fog[7].server[0] congestionRatio 0
scalar FogSequentialForward.fog[7].server[0] totalJobs 3620
scalar FogSequentialForward.fog[7].server[0] droppedJobsQueue 0
scalar FogSequentialForward.fog[7].server[0] droppedJobsTimout 0
scalar FogSequentialForward.fog[7].server[0] droppedJobsSLA 0
scalar FogSequentialForward.fog[7].server[0] droppedJobsTotal 0
scalar FogSequentialForward.fog[8].dispatcher localJobs 3521
scalar FogSequentialForward.fog[8].dispatcher internalJobs 3471
scalar FogSequentialForward.fog[8].dispatcher externalJobs 299
scalar FogSequentialForward.fog[8].dispatcher remoteJobs 249
scalar FogSequentialForward.fog[8].dispatcher probeQueries 0
scalar FogSequentialForward.fog[8].dispatcher probeAnswers 0
scalar FogSequentialForward.fog[8].dispatcher droppedJobsSLA 0
scalar FogSequentialForward.fog[8].dispatcher jobs_class_1 3770
scalar FogSequentialForward.fog[8].dispatcher remoteJobs_class_1 249
scalar FogSequentialForward.fog[8].dispatcher localJobs_class_1 3521
scalar FogSequentialForward.fog[8].server[0] rho 0.54435622692108
scalar FogSequentialForward.fog[8].server[0] congestionRatio 0
scalar FogSequentialForward.fog[8].server[0] totalJobs 3521
scalar FogSequentialForward.fog[8].server[0] droppedJobsQueue 0
scalar FogSequentialForward.fog[8].server[0] droppedJobsTimout 0
scalar FogSequentialForward.fog[8].server[0] droppedJobsSLA 0
scalar FogSequentialForward.fog[8].server[0] droppedJobsTotal 0
scalar FogSequentialForward.fog[9].dispatcher localJobs 3569
scalar FogSequentialForward.fog[9].dispatcher internalJobs 3596
scalar FogSequentialForward.fog[9].dispatcher externalJobs 273
scalar FogSequentialForward.fog[9].dispatcher remoteJobs 300
scalar FogSequentialForward.fog[9].dispatcher probeQueries 0
scalar FogSequentialForward.fog[9].dispatcher probeAnswers 0
scalar FogSequentialForward.fog[9].dispatcher droppedJobsSLA 0
scalar FogSequentialForward.fog[9].dispatcher jobs_class_1 3869
scalar FogSequentialForward.fog[9].dispatcher remoteJobs_class_1 300
scalar FogSequentialForward.fog[9].dispatcher localJobs_class_1 3569
scalar FogSequentialForward.fog[9].server[0] rho 0.55159616470337
scalar FogSequentialForward.fog[9].server[0] congestionRatio 0
scalar FogSequentialForward.fog[9].server[0] totalJobs 3569
scalar FogSequentialForward.fog[9].server[0] droppedJobsQueue 0
scalar FogSequentialForward.fog[9].server[0] droppedJobsTimout 0
scalar FogSequentialForward.fog[9].server[0] droppedJobsSLA 0
scalar FogSequentialForward.fog[9].server[0] droppedJobsTotal 0
scalar FogSequentialForward.fog[10].dispatcher localJobs 3621
scalar FogSequentialForward.fog[10].dispatcher internalJobs 3575
scalar FogSequentialForward.fog[10].dispatcher externalJobs 293
scalar FogSequentialForward.fog[10].dispatcher remoteJobs 247
scalar FogSequentialForward.fog[10].dispatcher probeQueries 0
scalar FogSequentialForward.fog[10].dispatcher probeAnswers 0
scalar FogSequentialForward.fog[10].dispatcher droppedJobsSLA 0
scalar FogSequentialForward.fog[10].dispatcher jobs_class_1 3868
scalar FogSequentialForward.fog[10].dispatcher remoteJobs_class_1 247
scalar FogSequentialForward.fog[10].dispatcher localJobs_class_1 3621
scalar FogSequentialForward.fog[10].server[0] rho 0.55981296300888
scalar FogSequentialForward.fog[10].server[0] congestionRatio 0
scalar FogSequentialForward.fog[10].server[0] totalJobs 3621
scalar FogSequentialForward.fog[10].server[0] droppedJobsQueue 0
scalar FogSequentialForward.fog[10].server[0] droppedJobsTimout 0
scalar FogSequentialForward.fog[10].server[0] droppedJobsSLA 0
scalar FogSequentialForward.fog[10].server[0] droppedJobsTotal 0
scalar FogSequentialForward.fog[11].dispatcher localJobs 3561
scalar FogSequentialForward.fog[11].dispatcher internalJobs 3534
scalar FogSequentialForward.fog[11].dispatcher externalJobs 280
scalar FogSequentialForward.fog[11].dispatcher remoteJobs 253
scalar FogSequentialForward.fog[11].dispatcher probeQueries 0
scalar FogSequentialForward.fog[11].dispatcher probeAnswers 0
scalar FogSequentialForward.fog[11].dispatcher droppedJobsSLA 0
scalar FogSequentialForward.fog[11].dispatcher jobs_class_1 3814
scalar FogSequentialForward.fog[11].dispatcher remoteJobs_class_1 253
scalar FogSequentialForward.fog[11].dispatcher localJobs_class_1 3561
scalar FogSequentialForward.fog[11].server[0] rho 0.55076479911804
scalar FogSequentialForward.fog[11].server[0] congestionRatio 0
scalar FogSequentialForward.fog[11].server[0] totalJobs 3561
scalar FogSequentialForward.fog[11].server[0] droppedJobsQueue 0
scalar FogSequentialForward.fog[11].server[0] droppedJobsTimout 0
scalar FogSequentialForward.fog[11].server[0] droppedJobsSLA 0
scalar FogSequentialForward.fog[11].server[0] droppedJobsTotal 0
scalar FogSequentialForward.fog[12].dispatcher localJobs 3503
scalar FogSequentialForward.fog[12].dispatcher internalJobs 3518
scalar FogSequentialForward.fog[12].dispatcher externalJobs 247
scalar FogSequentialForward.fog[12].dispatcher remoteJobs 262
scalar FogSequentialForward.fog[12].dispatcher probeQueries 0
scalar FogSequentialForward.fog[12].dispatcher probeAnswers 0
scalar FogSequentialForward.fog[12].dispatcher droppedJobsSLA 0
scalar FogSequentialForward.fog[12].dispatcher jobs_class_1 3765
scalar FogSequentialForward.fog[12].dispatcher remoteJobs_class_1 262
scalar FogSequentialForward.fog[12].dispatcher localJobs_class_1 3503
scalar FogSequentialForward.fog[12].server[0] rho 0.54187589883804
scalar FogSequentialForward.fog[12].server[0] congestionRatio 0
scalar FogSequentialForward.fog[12].server[0] totalJobs 3503
scalar FogSequentialForward.fog[12].server[0] droppedJobsQueue 0
scalar FogSequentialForward.fog[12].server[0] droppedJobsTimout 0
scalar FogSequentialForward.fog[12].server[0] droppedJobsSLA 0
scalar FogSequentialForward.fog[12].server[0] droppedJobsTotal 0
scalar FogSequentialForward.fog[13].dispatcher localJobs 3674
scalar FogSequentialForward.fog[13].dispatcher internalJobs 3708
scalar FogSequentialForward.fog[13].dispatcher externalJobs 263
scalar FogSequentialForward.fog[13].dispatcher remoteJobs 297
scalar FogSequentialForward.fog[13].dispatcher probeQueries 0
scalar FogSequentialForward.fog[13].dispatcher probeAnswers 0
scalar FogSequentialForward.fog[13].dispatcher droppedJobsSLA 0
scalar FogSequentialForward.fog[13].dispatcher jobs_class_1 3971
scalar FogSequentialForward.fog[13].dispatcher remoteJobs_class_1 297
scalar FogSequentialForward.fog[13].dispatcher localJobs_class_1 3674
scalar FogSequentialForward.fog[13].server[0] rho 0.56797820329666
scalar FogSequentialForward.fog[13].server[0] congestionRatio 0
scalar FogSequentialForward.fog[13].server[0] totalJobs 3674
scalar FogSequentialForward.fog[13].server[0] droppedJobsQueue 0
scalar FogSequentialForward.fog[13].server[0] droppedJobsTimout 0
scalar FogSequentialForward.fog[13].server[0] droppedJobsSLA 0
scalar FogSequentialForward.fog[13].server[0] droppedJobsTotal 0
scalar FogSequentialForward.fog[14].dispatcher localJobs 3567
scalar FogSequentialForward.fog[14].dispatcher internalJobs 3532
scalar FogSequentialForward.fog[14].dispatcher externalJobs 281
scalar FogSequentialForward.fog[14].dispatcher remoteJobs 246
scalar FogSequentialForward.fog[14].dispatcher probeQueries 0
scalar FogSequentialForward.fog[14].dispatcher probeAnswers 0
scalar FogSequentialForward.fog[14].dispatcher droppedJobsSLA 0
scalar FogSequentialForward.fog[14].dispatcher jobs_class_1 3813
scalar FogSequentialForward.fog[14].dispatcher remoteJobs_class_1 246
scalar FogSequentialForward.fog[14].dispatcher localJobs_class_1 3567
scalar FogSequentialForward.fog[14].server[0] rho 0.55167669057846
scalar FogSequentialForward.fog[14].server[0] congestionRatio 0
scalar FogSequentialForward.fog[14].server[0] totalJobs 3567
scalar FogSequentialForward.fog[14].server[0] droppedJobsQueue 0
scalar FogSequentialForward.fog[14].server[0] droppedJobsTimout 0
scalar FogSequentialForward.fog[14].server[0] droppedJobsSLA 0
scalar FogSequentialForward.fog[14].server[0] droppedJobsTotal 0
scalar FogSequentialForward.fog[15].dispatcher localJobs 3633
scalar FogSequentialForward.fog[15].dispatcher internalJobs 3633
scalar FogSequentialForward.fog[15].dispatcher externalJobs 319
scalar FogSequentialForward.fog[15].dispatcher remoteJobs 319
scalar FogSequentialForward.fog[15].dispatcher probeQueries 0
scalar FogSequentialForward.fog[15].dispatcher probeAnswers 0
scalar FogSequentialForward.fog[15].dispatcher droppedJobsSLA 0
scalar FogSequentialForward.fog[15].dispatcher jobs_class_1 3952
scalar FogSequentialForward.fog[15].dispatcher remoteJobs_class_1 319
scalar FogSequentialForward.fog[15].dispatcher localJobs_class_1 3633
scalar FogSequentialForward.fog[15].server[0] rho 0.56167089939117
scalar FogSequentialForward.fog[15].server[0] congestionRatio 0
scalar FogSequentialForward.fog[15].server[0] totalJobs 3633
scalar FogSequentialForward.fog[15].server[0] droppedJobsQueue 0
scalar FogSequentialForward.fog[15].server[0] droppedJobsTimout 0
scalar FogSequentialForward.fog[15].server[0] droppedJobsSLA 0
scalar FogSequentialForward.fog[15].server[0] droppedJobsTotal 0
scalar FogSequentialForward.fog[16].dispatcher localJobs 3674
scalar FogSequentialForward.fog[16].dispatcher internalJobs 3664
scalar FogSequentialForward.fog[16].dispatcher externalJobs 270
scalar FogSequentialForward.fog[16].dispatcher remoteJobs 260
scalar FogSequentialForward.fog[16].dispatcher probeQueries 0
scalar FogSequentialForward.fog[16].dispatcher probeAnswers 0
scalar FogSequentialForward.fog[16].dispatcher droppedJobsSLA 0
scalar FogSequentialForward.fog[16].dispatcher jobs_class_1 3934
scalar FogSequentialForward.fog[16].dispatcher remoteJobs_class_1 260
scalar FogSequentialForward.fog[16].dispatcher localJobs_class_1 3674
scalar FogSequentialForward.fog[16].server[0] rho 0.56784904003143
scalar FogSequentialForward.fog[16].server[0] congestionRatio 0
scalar FogSequentialForward.fog[16].server[0] totalJobs 3674
scalar FogSequentialForward.fog[16].server[0] droppedJobsQueue 0
scalar FogSequentialForward.fog[16].server[0] droppedJobsTimout 0
scalar FogSequentialForward.fog[16].server[0] droppedJobsSLA 0
scalar FogSequentialForward.fog[16].server[0] droppedJobsTotal 0
scalar FogSequentialForward.fog[17].dispatcher localJobs 3617
scalar FogSequentialForward.fog[17].dispatcher internalJobs 3577
scalar FogSequentialForward.fog[17].dispatcher externalJobs 295
scalar FogSequentialForward.fog[17].dispatcher remoteJobs 255
scalar FogSequentialForward.fog[17].dispatcher probeQueries 0
scalar FogSequentialForward.fog[17].dispatcher probeAnswers 0
scalar FogSequentialForward.fog[17].dispatcher droppedJobsSLA 0
scalar FogSequentialForward.fog[17].dispatcher jobs_class_1 3872
scalar FogSequentialForward.fog[17].dispatcher remoteJobs_class_1 255
scalar FogSequentialForward.fog[17].dispatcher localJobs_class_1 3617
scalar FogSequentialForward.fog[17].server[0] rho 0.55931854248047
scalar FogSequentialForward.fog[17].server[0] congestionRatio 0
scalar FogSequentialForward.fog[17].server[0] totalJobs 3617
scalar FogSequentialForward.fog[17].server[0] droppedJobsQueue 0
scalar FogSequentialForward.fog[17].server[0] droppedJobsTimout 0
scalar FogSequentialForward.fog[17].server[0] droppedJobsSLA 0
scalar FogSequentialForward.fog[17].server[0] droppedJobsTotal 0
scalar FogSequentialForward.fog[18].dispatcher localJobs 3686
scalar FogSequentialForward.fog[18].dispatcher internalJobs 3657
scalar FogSequentialForward.fog[18].dispatcher externalJobs 302
scalar FogSequentialForward.fog[18].dispatcher remoteJobs 273
scalar FogSequentialForward.fog[18].dispatcher probeQueries 0
scalar FogSequentialForward.fog[18].dispatcher probeAnswers 0
scalar FogSequentialForward.fog[18].dispatcher droppedJobsSLA 0
scalar FogSequentialForward.fog[18].dispatcher jobs_class_1 3959
scalar FogSequentialForward.fog[18].dispatcher remoteJobs_class_1 273
scalar FogSequentialForward.fog[18].dispatcher localJobs_class_1 3686
scalar FogSequentialForward.fog[18].server[0] rho 0.57045036554337
scalar FogSequentialForward.fog[18].server[0] congestionRatio 0
scalar FogSequentialForward.fog[18].server[0] totalJobs 3686
scalar FogSequentialForward.fog[18].server[0] droppedJobsQueue 0
scalar FogSequentialForward.fog[18].server[0] droppedJobsTimout 0
scalar FogSequentialForward.fog[18].server[0] droppedJobsSLA 0
scalar FogSequentialForward.fog[18].server[0] droppedJobsTotal 0
scalar FogSequentialForward.fog[19].dispatcher localJobs 3637
scalar FogSequentialForward.fog[19].dispatcher internalJobs 3639
scalar FogSequentialForward.fog[19].dispatcher externalJobs 278
scalar FogSequentialForward.fog[19].dispatcher remoteJobs 280
scalar FogSequentialForward.fog[19].dispatcher probeQueries 0
scalar FogSequentialForward.fog[19].dispatcher probeAnswers 0
scalar FogSequentialForward.fog[19].dispatcher droppedJobsSLA 0
scalar FogSequentialForward.fog[19].dispatcher jobs_class_1 3917
scalar FogSequentialForward.fog[19].dispatcher remoteJobs_class_1 280
scalar FogSequentialForward.fog[19].dispatcher localJobs_class_1 3637
scalar FogSequentialForward.fog[19].server[0] rho 0.5621862411499
scalar FogSequentialForward.fog[19].server[0] congestionRatio 0
scalar FogSequentialForward.fog[19].server[0] totalJobs 3637
scalar FogSequentialForward.fog[19].server[0] droppedJobsQueue 0
scalar FogSequentialForward.fog[19].server[0] droppedJobsTimout 0
scalar FogSequentialForward.fog[19].server[0] droppedJobsSLA 0
scalar FogSequentialForward.fog[19].server[0] droppedJobsTotal 0
scalar FogSequentialForward.fog[20].dispatcher localJobs 3603
scalar FogSequentialForward.fog[20].dispatcher internalJobs 3598
scalar FogSequentialForward.fog[20].dispatcher externalJobs 293
scalar FogSequentialForward.fog[20].dispatcher remoteJobs 288
scalar FogSequentialForward.fog[20].dispatcher probeQueries 0
scalar FogSequentialForward.fog[20].dispatcher probeAnswers 0
scalar FogSequentialForward.fog[20].dispatcher droppedJobsSLA 0
scalar FogSequentialForward.fog[20].dispatcher jobs_class_1 3891
scalar FogSequentialForward.fog[20].dispatcher remoteJobs_class_1 288
scalar FogSequentialForward.fog[20].dispatcher localJobs_class_1 3603
scalar FogSequentialForward.fog[20].server[0] rho 0.55703073740005
scalar FogSequentialForward.fog[20].server[0] congestionRatio 0
scalar FogSequentialForward.fog[20].server[0] totalJobs 3603
scalar FogSequentialForward.fog[20].server[0] droppedJobsQueue 0
scalar FogSequentialForward.fog[20].server[0] droppedJobsTimout 0
scalar FogSequentialForward.fog[20].server[0] droppedJobsSLA 0
scalar FogSequentialForward.fog[20].server[0] droppedJobsTotal 0
scalar FogSequentialForward.fog[21].dispatcher localJobs 3573
scalar FogSequentialForward.fog[21].dispatcher internalJobs 3546
scalar FogSequentialForward.fog[21].dispatcher externalJobs 276
scalar FogSequentialForward.fog[21].dispatcher remoteJobs 249
scalar FogSequentialForward.fog[21].dispatcher probeQueries 0
scalar FogSequentialForward.fog[21].dispatcher probeAnswers 0
scalar FogSequentialForward.fog[21].dispatcher droppedJobsSLA 0
scalar FogSequentialForward.fog[21].dispatcher jobs_class_1 3822
scalar FogSequentialForward.fog[21].dispatcher remoteJobs_class_1 249
scalar FogSequentialForward.fog[21].dispatcher localJobs_class_1 3573
scalar FogSequentialForward.fog[21].server[0] rho 0.55249893665314
scalar FogSequentialForward.fog[21].server[0] congestionRatio 0
scalar FogSequentialForward.fog[21].server[0] totalJobs 3573
scalar FogSequentialForward.fog[21].server[0] droppedJobsQueue 0
scalar FogSequentialForward.fog[21].server[0] droppedJobsTimout 0
scalar FogSequentialForward.fog[21].server[0] droppedJobsSLA 0
scalar FogSequentialForward.fog[21].server[0] droppedJobsTotal 0
scalar FogSequentialForward.fog[22].dispatcher localJobs 3697
scalar FogSequentialForward.fog[22].dispatcher internalJobs 3693
scalar FogSequentialForward.fog[22].dispatcher externalJobs 297
scalar FogSequentialForward.fog[22].dispatcher remoteJobs 293
scalar FogSequentialForward.fog[22].dispatcher probeQueries 0
scalar FogSequentialForward.fog[22].dispatcher probeAnswers 0
scalar FogSequentialForward.fog[22].dispatcher droppedJobsSLA 0
scalar FogSequentialForward.fog[22].dispatcher jobs_class_1 3990
scalar FogSequentialForward.fog[22].dispatcher remoteJobs_class_1 293
scalar FogSequentialForward.fog[22].dispatcher localJobs_class_1 3697
scalar FogSequentialForward.fog[22].server[0] rho 0.57085847854614
scalar FogSequentialForward.fog[22].server[0] congestionRatio 0
scalar FogSequentialForward.fog[22].server[0] totalJobs 3697
scalar FogSequentialForward.fog[22].server[0] droppedJobsQueue 0
scalar FogSequentialForward.fog[22].server[0] droppedJobsTimout 0
scalar FogSequentialForward.fog[22].server[0] droppedJobsSLA 0
scalar FogSequentialForward.fog[22].server[0] droppedJobsTotal 0
scalar FogSequentialForward.fog[23].dispatcher localJobs 3642
scalar FogSequentialForward.fog[23].dispatcher internalJobs 3650
scalar FogSequentialForward.fog[23].dispatcher externalJobs 269
scalar FogSequentialForward.fog[23].dispatcher remoteJobs 277
scalar FogSequentialForward.fog[23].dispatcher probeQueries 0
scalar FogSequentialForward.fog[23].dispatcher probeAnswers 0
scalar FogSequentialForward.fog[23].dispatcher droppedJobsSLA 0
scalar FogSequentialForward.fog[23].dispatcher jobs_class_1 3919
scalar FogSequentialForward.fog[23].dispatcher remoteJobs_class_1 277
scalar FogSequentialForward.fog[23].dispatcher localJobs_class_1 3642
scalar FogSequentialForward.fog[23].server[0] rho 0.56289184093475
scalar FogSequentialForward.fog[23].server[0] congestionRatio 0
scalar FogSequentialForward.fog[23].server[0] totalJobs 3642
scalar FogSequentialForward.fog[23].server[0] droppedJobsQueue 0
scalar FogSequentialForward.fog[23].server[0] droppedJobsTimout 0
scalar FogSequentialForward.fog[23].server[0] droppedJobsSLA 0
scalar FogSequentialForward.fog[23].server[0] droppedJobsTotal 0
scalar FogSequentialForward.fog[24].dispatcher localJobs 3571
scalar FogSequentialForward.fog[24].dispatcher internalJobs 3560
scalar FogSequentialForward.fog[24].dispatcher externalJobs 292
scalar FogSequentialForward.fog[24].dispatcher remoteJobs 281
scalar FogSequentialForward.fog[24].dispatcher probeQueries 0
scalar FogSequentialForward.fog[24].dispatcher probeAnswers 0
scalar FogSequentialForward.fog[24].dispatcher droppedJobsSLA 0
scalar FogSequentialForward.fog[24].dispatcher jobs_class_1 3852
scalar FogSequentialForward.fog[24].dispatcher remoteJobs_class_1 281
scalar FogSequentialForward.fog[24].dispatcher localJobs_class_1 3571
scalar FogSequentialForward.fog[24].server[0] rho 0.55204737186432
scalar FogSequentialForward.fog[24].server[0] congestionRatio 0
scalar FogSequentialForward.fog[24].server[0] totalJobs 3571
scalar FogSequentialForward.fog[24].server[0] droppedJobsQueue 0
scalar FogSequentialForward.fog[24].server[0] droppedJobsTimout 0
scalar FogSequentialForward.fog[24].server[0] droppedJobsSLA 0
scalar FogSequentialForward.fog[24].server[0] droppedJobsTotal 0
scalar FogSequentialForward.fog[25].dispatcher localJobs 3665
scalar FogSequentialForward.fog[25].dispatcher internalJobs 3700
scalar FogSequentialForward.fog[25].dispatcher externalJobs 289
scalar FogSequentialForward.fog[25].dispatcher remoteJobs 324
scalar FogSequentialForward.fog[25].dispatcher probeQueries 0
scalar FogSequentialForward.fog[25].dispatcher probeAnswers 0
scalar FogSequentialForward.fog[25].dispatcher droppedJobsSLA 0
scalar FogSequentialForward.fog[25].dispatcher jobs_class_1 3989
scalar FogSequentialForward.fog[25].dispatcher remoteJobs_class_1 324
scalar FogSequentialForward.fog[25].dispatcher localJobs_class_1 3665
scalar FogSequentialForward.fog[25].server[0] rho 0.56655007600784
scalar FogSequentialForward.fog[25].server[0] congestionRatio 0
scalar FogSequentialForward.fog[25].server[0] totalJobs 3665
scalar FogSequentialForward.fog[25].server[0] droppedJobsQueue 0
scalar FogSequentialForward.fog[25].server[0] droppedJobsTimout 0
scalar FogSequentialForward.fog[25].server[0] droppedJobsSLA 0
scalar FogSequentialForward.fog[25].server[0] droppedJobsTotal 0
scalar FogSequentialForward.fog[26].dispatcher localJobs 3638
scalar FogSequentialForward.fog[26].dispatcher internalJobs 3639
scalar FogSequentialForward.fog[26].dispatcher externalJobs 291
scalar FogSequentialForward.fog[26].dispatcher remoteJobs 292
scalar FogSequentialForward.fog[26].dispatcher probeQueries 0
scalar FogSequentialForward.fog[26].dispatcher probeAnswers 0
scalar FogSequentialForward.fog[26].dispatcher droppedJobsSLA 0
scalar FogSequentialForward.fog[26].dispatcher jobs_class_1 3930
scalar FogSequentialForward.fog[26].dispatcher remoteJobs_class_1 292
scalar FogSequentialForward.fog[26].dispatcher localJobs_class_1 3638
scalar FogSequentialForward.fog[26].server[0] rho 0.56232166290283
scalar FogSequentialForward.fog[26].server[0] congestionRatio 0
scalar FogSequentialForward.fog[26].server[0] totalJobs 3638
scalar FogSequentialForward.fog[26].server[0] droppedJobsQueue 0
scalar FogSequentialForward.fog[26].server[0] droppedJobsTimout 0
scalar FogSequentialForward.fog[26].server[0] droppedJobsSLA 0
scalar FogSequentialForward.fog[26].server[0] droppedJobsTotal 0
scalar FogSequentialForward.fog[27].dispatcher localJobs 3618
scalar FogSequentialForward.fog[27].dispatcher internalJobs 3623
scalar FogSequentialForward.fog[27].dispatcher externalJobs 296
scalar FogSequentialForward.fog[27].dispatcher remoteJobs 301
scalar FogSequentialForward.fog[27].dispatcher probeQueries 0
scalar FogSequentialForward.fog[27].dispatcher probeAnswers 0
scalar FogSequentialForward.fog[27].dispatcher droppedJobsSLA 0
scalar FogSequentialForward.fog[27].dispatcher jobs_class_1 3919
scalar FogSequentialForward.fog[27].dispatcher remoteJobs_class_1 301
scalar FogSequentialForward.fog[27].dispatcher localJobs_class_1 3618
scalar FogSequentialForward.fog[27].server[0] rho 0.55938148498535
scalar FogSequentialForward.fog[27].server[0] congestionRatio 0
scalar FogSequentialForward.fog[27].server[0] totalJobs 3618
scalar FogSequentialForward.fog[27].server[0] droppedJobsQueue 0
scalar FogSequentialForward.fog[27].server[0] droppedJobsTimout 0
scalar FogSequentialForward.fog[27].server[0] droppedJobsSLA 0
scalar FogSequentialForward.fog[27].server[0] droppedJobsTotal 0
scalar FogSequentialForward.fog[28].dispatcher localJobs 3665
scalar FogSequentialForward.fog[28].dispatcher internalJobs 3679
scalar FogSequentialForward.fog[28].dispatcher externalJobs 268
scalar FogSequentialForward.fog[28].dispatcher remoteJobs 282
scalar FogSequentialForward.fog[28].dispatcher probeQueries 0
scalar FogSequentialForward.fog[28].dispatcher probeAnswers 0
scalar FogSequentialForward.fog[28].dispatcher droppedJobsSLA 0
scalar FogSequentialForward.fog[28].dispatcher jobs_class_1 3947
scalar FogSequentialForward.fog[28].dispatcher remoteJobs_class_1 282
scalar FogSequentialForward.fog[28].dispatcher localJobs_class_1 3665
scalar FogSequentialForward.fog[28].server[0] rho 0.56679612398148
scalar FogSequentialForward.fog[28].server[0] congestionRatio 0
scalar FogSequentialForward.fog[28].server[0] totalJobs 3665
scalar FogSequentialForward.fog[28].server[0] droppedJobsQueue 0
scalar FogSequentialForward.fog[28].server[0] droppedJobsTimout 0
scalar FogSequentialForward.fog[28].server[0] droppedJobsSLA 0
scalar FogSequentialForward.fog[28].server[0] droppedJobsTotal 0
scalar FogSequentialForward.fog[29].dispatcher localJobs 3627
scalar FogSequentialForward.fog[29].dispatcher internalJobs 3637
scalar FogSequentialForward.fog[29].dispatcher externalJobs 270
scalar FogSequentialForward.fog[29].dispatcher remoteJobs 280
scalar FogSequentialForward.fog[29].dispatcher probeQueries 0
scalar FogSequentialForward.fog[29].dispatcher probeAnswers 0
scalar FogSequentialForward.fog[29].dispatcher droppedJobsSLA 0
scalar FogSequentialForward.fog[29].dispatcher jobs_class_1 3907
scalar FogSequentialForward.fog[29].dispatcher remoteJobs_class_1 280
scalar FogSequentialForward.fog[29].dispatcher localJobs_class_1 3627
scalar FogSequentialForward.fog[29].server[0] rho 0.56116157770157
scalar FogSequentialForward.fog[29].server[0] congestionRatio 0
scalar FogSequentialForward.fog[29].server[0] totalJobs 3627
scalar FogSequentialForward.fog[29].server[0] droppedJobsQueue 0
scalar FogSequentialForward.fog[29].server[0] droppedJobsTimout 0
scalar FogSequentialForward.fog[29].server[0] droppedJobsSLA 0
scalar FogSequentialForward.fog[29].server[0] droppedJobsTotal 0
scalar FogSequentialForward.fog[30].dispatcher localJobs 3635
scalar FogSequentialForward.fog[30].dispatcher internalJobs 3648
scalar FogSequentialForward.fog[30].dispatcher externalJobs 283
scalar FogSequentialForward.fog[30].dispatcher remoteJobs 296
scalar FogSequentialForward.fog[30].dispatcher probeQueries 0
scalar FogSequentialForward.fog[30].dispatcher probeAnswers 0
scalar FogSequentialForward.fog[30].dispatcher droppedJobsSLA 0
scalar FogSequentialForward.fog[30].dispatcher jobs_class_1 3931
scalar FogSequentialForward.fog[30].dispatcher remoteJobs_class_1 296
scalar FogSequentialForward.fog[30].dispatcher localJobs_class_1 3635
scalar FogSequentialForward.fog[30].server[0] rho 0.56159549951553
scalar FogSequentialForward.fog[30].server[0] congestionRatio 0
scalar FogSequentialForward.fog[30].server[0] totalJobs 3635
scalar FogSequentialForward.fog[30].server[0] droppedJobsQueue 0
scalar FogSequentialForward.fog[30].server[0] droppedJobsTimout 0
scalar FogSequentialForward.fog[30].server[0] droppedJobsSLA 0
scalar FogSequentialForward.fog[30].server[0] droppedJobsTotal 0
scalar FogSequentialForward.fog[31].dispatcher localJobs 3532
scalar FogSequentialForward.fog[31].dispatcher internalJobs 3544
scalar FogSequentialForward.fog[31].dispatcher externalJobs 275
scalar FogSequentialForward.fog[31].dispatcher remoteJobs 287
scalar FogSequentialForward.fog[31].dispatcher probeQueries 0
scalar FogSequentialForward.fog[31].dispatcher probeAnswers 0
scalar FogSequentialForward.fog[31].dispatcher droppedJobsSLA 0
scalar FogSequentialForward.fog[31].dispatcher jobs_class_1 3819
scalar FogSequentialForward.fog[31].dispatcher remoteJobs_class_1 287
scalar FogSequentialForward.fog[31].dispatcher localJobs_class_1 3532
scalar FogSequentialForward.fog[31].server[0] rho 0.54619735479355
scalar FogSequentialForward.fog[31].server[0] congestionRatio 0
scalar FogSequentialForward.fog[31].server[0] totalJobs 3532
scalar FogSequentialForward.fog[31].server[0] droppedJobsQueue 0
scalar FogSequentialForward.fog[31].server[0] droppedJobsTimout 0
scalar FogSequentialForward.fog[31].server[0] droppedJobsSLA 0
scalar FogSequentialForward.fog[31].server[0] droppedJobsTotal 0
scalar FogSequentialForward.fog[32].dispatcher localJobs 3611
scalar FogSequentialForward.fog[32].dispatcher internalJobs 3606
scalar FogSequentialForward.fog[32].dispatcher externalJobs 282
scalar FogSequentialForward.fog[32].dispatcher remoteJobs 277
scalar FogSequentialForward.fog[32].dispatcher probeQueries 0
scalar FogSequentialForward.fog[32].dispatcher probeAnswers 0
scalar FogSequentialForward.fog[32].dispatcher droppedJobsSLA 0
scalar FogSequentialForward.fog[32].dispatcher jobs_class_1 3888
scalar FogSequentialForward.fog[32].dispatcher remoteJobs_class_1 277
scalar FogSequentialForward.fog[32].dispatcher localJobs_class_1 3611
scalar FogSequentialForward.fog[32].server[0] rho 0.55827122926712
scalar FogSequentialForward.fog[32].server[0] congestionRatio 0
scalar FogSequentialForward.fog[32].server[0] totalJobs 3611
scalar FogSequentialForward.fog[32].server[0] droppedJobsQueue 0
scalar FogSequentialForward.fog[32].server[0] droppedJobsTimout 0
scalar FogSequentialForward.fog[32].server[0] droppedJobsSLA 0
scalar FogSequentialForward.fog[32].server[0] droppedJobsTotal 0
scalar FogSequentialForward.fog[33].dispatcher localJobs 3605
scalar FogSequentialForward.fog[33].dispatcher internalJobs 3613
scalar FogSequentialForward.fog[33].dispatcher externalJobs 282
scalar FogSequentialForward.fog[33].dispatcher remoteJobs 290
scalar FogSequentialForward.fog[33].dispatcher probeQueries 0
scalar FogSequentialForward.fog[33].dispatcher probeAnswers 0
scalar FogSequentialForward.fog[33].dispatcher droppedJobsSLA 0
scalar FogSequentialForward.fog[33].dispatcher jobs_class_1 3895
scalar FogSequentialForward.fog[33].dispatcher remoteJobs_class_1 290
scalar FogSequentialForward.fog[33].dispatcher localJobs_class_1 3605
scalar FogSequentialForward.fog[33].server[0] rho 0.55760568380356
scalar FogSequentialForward.fog[33].server[0] congestionRatio 0
scalar FogSequentialForward.fog[33].server[0] totalJobs 3605
scalar FogSequentialForward.fog[33].server[0] droppedJobsQueue 0
scalar FogSequentialForward.fog[33].server[0] droppedJobsTimout 0
scalar FogSequentialForward.fog[33].server[0] droppedJobsSLA 0
scalar FogSequentialForward.fog[33].server[0] droppedJobsTotal 0
scalar FogSequentialForward.fog[34].dispatcher localJobs 3678
scalar FogSequentialForward.fog[34].dispatcher internalJobs 3690
scalar FogSequentialForward.fog[34].dispatcher externalJobs 281
scalar FogSequentialForward.fog[34].dispatcher remoteJobs 293
scalar FogSequentialForward.fog[34].dispatcher probeQueries 0
scalar FogSequentialForward.fog[34].dispatcher probeAnswers 0
scalar FogSequentialForward.fog[34].dispatcher droppedJobsSLA 0
scalar FogSequentialForward.fog[34].dispatcher jobs_class_1 3971
scalar FogSequentialForward.fog[34].dispatcher remoteJobs_class_1 293
scalar FogSequentialForward.fog[34].dispatcher localJobs_class_1 3678
scalar FogSequentialForward.fog[34].server[0] rho 0.56830161809921
scalar FogSequentialForward.fog[34].server[0] congestionRatio 0
scalar FogSequentialForward.fog[34].server[0] totalJobs 3678
scalar FogSequentialForward.fog[34].server[0] droppedJobsQueue 0
scalar FogSequentialForward.fog[34].server[0] droppedJobsTimout 0
scalar FogSequentialForward.fog[34].server[0] droppedJobsSLA 0
scalar FogSequentialForward.fog[34].server[0] droppedJobsTotal 0
scalar FogSequentialForward.fog[35].dispatcher localJobs 3620
scalar FogSequentialForward.fog[35].dispatcher internalJobs 3639
scalar FogSequentialForward.fog[35].dispatcher externalJobs 266
scalar FogSequentialForward.fog[35].dispatcher remoteJobs 285
scalar FogSequentialForward.fog[35].dispatcher probeQueries 0
scalar FogSequentialForward.fog[35].dispatcher probeAnswers 0
scalar FogSequentialForward.fog[35].dispatcher droppedJobsSLA 0
scalar FogSequentialForward.fog[35].dispatcher jobs_class_1 3905
scalar FogSequentialForward.fog[35].dispatcher remoteJobs_class_1 285
scalar FogSequentialForward.fog[35].dispatcher localJobs_class_1 3620
scalar FogSequentialForward.fog[35].server[0] rho 0.55963206291199
scalar FogSequentialForward.fog[35].server[0] congestionRatio 0
scalar FogSequentialForward.fog[35].server[0] totalJobs 3620
scalar FogSequentialForward.fog[35].server[0] droppedJobsQueue 0
scalar FogSequentialForward.fog[35].server[0] droppedJobsTimout 0
scalar FogSequentialForward.fog[35].server[0] droppedJobsSLA 0
scalar FogSequentialForward.fog[35].server[0] droppedJobsTotal 0
scalar FogSequentialForward.fog[36].dispatcher localJobs 3611
scalar FogSequentialForward.fog[36].dispatcher internalJobs 3595
scalar FogSequentialForward.fog[36].dispatcher externalJobs 305
scalar FogSequentialForward.fog[36].dispatcher remoteJobs 289
scalar FogSequentialForward.fog[36].dispatcher probeQueries 0
scalar FogSequentialForward.fog[36].dispatcher probeAnswers 0
scalar FogSequentialForward.fog[36].dispatcher droppedJobsSLA 0
scalar FogSequentialForward.fog[36].dispatcher jobs_class_1 3900
scalar FogSequentialForward.fog[36].dispatcher remoteJobs_class_1 289
scalar FogSequentialForward.fog[36].dispatcher localJobs_class_1 3611
scalar FogSequentialForward.fog[36].server[0] rho 0.55840164422989
scalar FogSequentialForward.fog[36].server[0] congestionRatio 0
scalar FogSequentialForward.fog[36].server[0] totalJobs 3611
scalar FogSequentialForward.fog[36].server[0] droppedJobsQueue 0
scalar FogSequentialForward.fog[36].server[0] droppedJobsTimout 0
scalar FogSequentialForward.fog[36].server[0] droppedJobsSLA 0
scalar FogSequentialForward.fog[36].server[0] droppedJobsTotal 0
scalar FogSequentialForward.fog[37].dispatcher localJobs 3469
scalar FogSequentialForward.fog[37].dispatcher internalJobs 3440
scalar FogSequentialForward.fog[37].dispatcher externalJobs 277
scalar FogSequentialForward.fog[37].dispatcher remoteJobs 248
scalar FogSequentialForward.fog[37].dispatcher probeQueries 0
scalar FogSequentialForward.fog[37].dispatcher probeAnswers 0
scalar FogSequentialForward.fog[37].dispatcher droppedJobsSLA 0
scalar FogSequentialForward.fog[37].dispatcher jobs_class_1 3717
scalar FogSequentialForward.fog[37].dispatcher remoteJobs_class_1 248
scalar FogSequentialForward.fog[37].dispatcher localJobs_class_1 3469
scalar FogSequentialForward.fog[37].server[0] rho 0.53615874052048
scalar FogSequentialForward.fog[37].server[0] congestionRatio 0
scalar FogSequentialForward.fog[37].server[0] totalJobs 3469
scalar FogSequentialForward.fog[37].server[0] droppedJobsQueue 0
scalar FogSequentialForward.fog[37].server[0] droppedJobsTimout 0
scalar FogSequentialForward.fog[37].server[0] droppedJobsSLA 0
scalar FogSequentialForward.fog[37].server[0] droppedJobsTotal 0
scalar FogSequentialForward.fog[38].dispatcher localJobs 3668
scalar FogSequentialForward.fog[38].dispatcher internalJobs 3712
scalar FogSequentialForward.fog[38].dispatcher externalJobs 286
scalar FogSequentialForward.fog[38].dispatcher remoteJobs 330
scalar FogSequentialForward.fog[38].dispatcher probeQueries 0
scalar FogSequentialForward.fog[38].dispatcher probeAnswers 0
scalar FogSequentialForward.fog[38].dispatcher droppedJobsSLA 0
scalar FogSequentialForward.fog[38].dispatcher jobs_class_1 3998
scalar FogSequentialForward.fog[38].dispatcher remoteJobs_class_1 330
scalar FogSequentialForward.fog[38].dispatcher localJobs_class_1 3668
scalar FogSequentialForward.fog[38].server[0] rho 0.56679570674896
scalar FogSequentialForward.fog[38].server[0] congestionRatio 0
scalar FogSequentialForward.fog[38].server[0] totalJobs 3668
scalar FogSequentialForward.fog[38].server[0] droppedJobsQueue 0
scalar FogSequentialForward.fog[38].server[0] droppedJobsTimout 0
scalar FogSequentialForward.fog[38].server[0] droppedJobsSLA 0
scalar FogSequentialForward.fog[38].server[0] droppedJobsTotal 0
scalar FogSequentialForward.fog[39].dispatcher localJobs 3655
scalar FogSequentialForward.fog[39].dispatcher internalJobs 3672
scalar FogSequentialForward.fog[39].dispatcher externalJobs 262
scalar FogSequentialForward.fog[39].dispatcher remoteJobs 279
scalar FogSequentialForward.fog[39].dispatcher probeQueries 0
scalar FogSequentialForward.fog[39].dispatcher probeAnswers 0
scalar FogSequentialForward.fog[39].dispatcher droppedJobsSLA 0
scalar FogSequentialForward.fog[39].dispatcher jobs_class_1 3934
scalar FogSequentialForward.fog[39].dispatcher remoteJobs_class_1 279
scalar FogSequentialForward.fog[39].dispatcher localJobs_class_1 3655
scalar FogSequentialForward.fog[39].server[0] rho 0.56508123874664
scalar FogSequentialForward.fog[39].server[0] congestionRatio 0
scalar FogSequentialForward.fog[39].server[0] totalJobs 3655
scalar FogSequentialForward.fog[39].server[0] droppedJobsQueue 0
scalar FogSequentialForward.fog[39].server[0] droppedJobsTimout 0
scalar FogSequentialForward.fog[39].server[0] droppedJobsSLA 0
scalar FogSequentialForward.fog[39].server[0] droppedJobsTotal 0
scalar FogSequentialForward.fog[40].dispatcher localJobs 3705
scalar FogSequentialForward.fog[40].dispatcher internalJobs 3748
scalar FogSequentialForward.fog[40].dispatcher externalJobs 302
scalar FogSequentialForward.fog[40].dispatcher remoteJobs 345
scalar FogSequentialForward.fog[40].dispatcher probeQueries 0
scalar FogSequentialForward.fog[40].dispatcher probeAnswers 0
scalar FogSequentialForward.fog[40].dispatcher droppedJobsSLA 0
scalar FogSequentialForward.fog[40].dispatcher jobs_class_1 4050
scalar FogSequentialForward.fog[40].dispatcher remoteJobs_class_1 345
scalar FogSequentialForward.fog[40].dispatcher localJobs_class_1 3705
scalar FogSequentialForward.fog[40].server[0] rho 0.57302492856979
scalar FogSequentialForward.fog[40].server[0] congestionRatio 0
scalar FogSequentialForward.fog[40].server[0] totalJobs 3705
scalar FogSequentialForward.fog[40].server[0] droppedJobsQueue 0
scalar FogSequentialForward.fog[40].server[0] droppedJobsTimout 0
scalar FogSequentialForward.fog[40].server[0] droppedJobsSLA 0
scalar FogSequentialForward.fog[40].server[0] droppedJobsTotal 0
scalar FogSequentialForward.fog[41].dispatcher localJobs 3681
scalar FogSequentialForward.fog[41].dispatcher internalJobs 3700
scalar FogSequentialForward.fog[41].dispatcher externalJobs 284
scalar FogSequentialForward.fog[41].dispatcher remoteJobs 303
scalar FogSequentialForward.fog[41].dispatcher probeQueries 0
scalar FogSequentialForward.fog[41].dispatcher probeAnswers 0
scalar FogSequentialForward.fog[41].dispatcher droppedJobsSLA 0
scalar FogSequentialForward.fog[41].dispatcher jobs_class_1 3984
scalar FogSequentialForward.fog[41].dispatcher remoteJobs_class_1 303
scalar FogSequentialForward.fog[41].dispatcher localJobs_class_1 3681
scalar FogSequentialForward.fog[41].server[0] rho 0.56898766756058
scalar FogSequentialForward.fog[41].server[0] congestionRatio 0
scalar FogSequentialForward.fog[41].server[0] totalJobs 3681
scalar FogSequentialForward.fog[41].server[0] droppedJobsQueue 0
scalar FogSequentialForward.fog[41].server[0] droppedJobsTimout 0
scalar FogSequentialForward.fog[41].server[0] droppedJobsSLA 0
scalar FogSequentialForward.fog[41].server[0] droppedJobsTotal 0
scalar FogSequentialForward.fog[42].dispatcher localJobs 3623
scalar FogSequentialForward.fog[42].dispatcher internalJobs 3598
scalar FogSequentialForward.fog[42].dispatcher externalJobs 304
scalar FogSequentialForward.fog[42].dispatcher remoteJobs 279
scalar FogSequentialForward.fog[42].dispatcher probeQueries 0
scalar FogSequentialForward.fog[42].dispatcher probeAnswers 0
scalar FogSequentialForward.fog[42].dispatcher droppedJobsSLA 0
scalar FogSequentialForward.fog[42].dispatcher jobs_class_1 3902
scalar FogSequentialForward.fog[42].dispatcher remoteJobs_class_1 279
scalar FogSequentialForward.fog[42].dispatcher localJobs_class_1 3623
scalar FogSequentialForward.fog[42].server[0] rho 0.56011593341827
scalar FogSequentialForward.fog[42].server[0] congestionRatio 0
scalar FogSequentialForward.fog[42].server[0] totalJobs 3623
scalar FogSequentialForward.fog[42].server[0] droppedJobsQueue 0
scalar FogSequentialForward.fog[42].server[0] droppedJobsTimout 0
scalar FogSequentialForward.fog[42].server[0] droppedJobsSLA 0
scalar FogSequentialForward.fog[42].server[0] droppedJobsTotal 0
scalar FogSequentialForward.fog[43].dispatcher localJobs 3668
scalar FogSequentialForward.fog[43].dispatcher internalJobs 3710
scalar FogSequentialForward.fog[43].dispatcher externalJobs 258
scalar FogSequentialForward.fog[43].dispatcher remoteJobs 300
scalar FogSequentialForward.fog[43].dispatcher probeQueries 0
scalar FogSequentialForward.fog[43].dispatcher probeAnswers 0
scalar FogSequentialForward.fog[43].dispatcher droppedJobsSLA 0
scalar FogSequentialForward.fog[43].dispatcher jobs_class_1 3968
scalar FogSequentialForward.fog[43].dispatcher remoteJobs_class_1 300
scalar FogSequentialForward.fog[43].dispatcher localJobs_class_1 3668
scalar FogSequentialForward.fog[43].server[0] rho 0.56732100248337
scalar FogSequentialForward.fog[43].server[0] congestionRatio 0
scalar FogSequentialForward.fog[43].server[0] totalJobs 3668
scalar FogSequentialForward.fog[43].server[0] droppedJobsQueue 0
scalar FogSequentialForward.fog[43].server[0] droppedJobsTimout 0
scalar FogSequentialForward.fog[43].server[0] droppedJobsSLA 0
scalar FogSequentialForward.fog[43].server[0] droppedJobsTotal 0
scalar FogSequentialForward.fog[44].dispatcher localJobs 3572
scalar FogSequentialForward.fog[44].dispatcher internalJobs 3545
scalar FogSequentialForward.fog[44].dispatcher externalJobs 273
scalar FogSequentialForward.fog[44].dispatcher remoteJobs 246
scalar FogSequentialForward.fog[44].dispatcher probeQueries 0
scalar FogSequentialForward.fog[44].dispatcher probeAnswers 0
scalar FogSequentialForward.fog[44].dispatcher droppedJobsSLA 0
scalar FogSequentialForward.fog[44].dispatcher jobs_class_1 3818
scalar FogSequentialForward.fog[44].dispatcher remoteJobs_class_1 246
scalar FogSequentialForward.fog[44].dispatcher localJobs_class_1 3572
scalar FogSequentialForward.fog[44].server[0] rho 0.5520903468132
scalar FogSequentialForward.fog[44].server[0] congestionRatio 0
scalar FogSequentialForward.fog[44].server[0] totalJobs 3572
scalar FogSequentialForward.fog[44].server[0] droppedJobsQueue 0
scalar FogSequentialForward.fog[44].server[0] droppedJobsTimout 0
scalar FogSequentialForward.fog[44].server[0] droppedJobsSLA 0
scalar FogSequentialForward.fog[44].server[0] droppedJobsTotal 0
scalar FogSequentialForward.fog[45].dispatcher localJobs 3543
scalar FogSequentialForward.fog[45].dispatcher internalJobs 3515
scalar FogSequentialForward.fog[45].dispatcher externalJobs 259
scalar FogSequentialForward.fog[45].dispatcher remoteJobs 231
scalar FogSequentialForward.fog[45].dispatcher probeQueries 0
scalar FogSequentialForward.fog[45].dispatcher probeAnswers 0
scalar FogSequentialForward.fog[45].dispatcher droppedJobsSLA 0
scalar FogSequentialForward.fog[45].dispatcher jobs_class_1 3774
scalar FogSequentialForward.fog[45].dispatcher remoteJobs_class_1 231
scalar FogSequentialForward.fog[45].dispatcher localJobs_class_1 3543
scalar FogSequentialForward.fog[45].server[0] rho 0.54761838912964
scalar FogSequentialForward.fog[45].server[0] congestionRatio 0
scalar FogSequentialForward.fog[45].server[0] totalJobs 3543
scalar FogSequentialForward.fog[45].server[0] droppedJobsQueue 0
scalar FogSequentialForward.fog[45].server[0] droppedJobsTimout 0
scalar FogSequentialForward.fog[45].server[0] droppedJobsSLA 0
scalar FogSequentialForward.fog[45].server[0] droppedJobsTotal 0
scalar FogSequentialForward.fog[46].dispatcher localJobs 3573
scalar FogSequentialForward.fog[46].dispatcher internalJobs 3545
scalar FogSequentialForward.fog[46].dispatcher externalJobs 284
scalar FogSequentialForward.fog[46].dispatcher remoteJobs 256
scalar FogSequentialForward.fog[46].dispatcher probeQueries 0
scalar FogSequentialForward.fog[46].dispatcher probeAnswers 0
scalar FogSequentialForward.fog[46].dispatcher droppedJobsSLA 0
scalar FogSequentialForward.fog[46].dispatcher jobs_class_1 3829
scalar FogSequentialForward.fog[46].dispatcher remoteJobs_class_1 256
scalar FogSequentialForward.fog[46].dispatcher localJobs_class_1 3573
scalar FogSequentialForward.fog[46].server[0] rho 0.55220347642899
scalar FogSequentialForward.fog[46].server[0] congestionRatio 0
scalar FogSequentialForward.fog[46].server[0] totalJobs 3573
scalar FogSequentialForward.fog[46].server[0] droppedJobsQueue 0
scalar FogSequentialForward.fog[46].server[0] droppedJobsTimout 0
scalar FogSequentialForward.fog[46].server[0] droppedJobsSLA 0
scalar FogSequentialForward.fog[46].server[0] droppedJobsTotal 0
scalar FogSequentialForward.fog[47].dispatcher localJobs 3621
scalar FogSequentialForward.fog[47].dispatcher internalJobs 3606
scalar FogSequentialForward.fog[47].dispatcher externalJobs 305
scalar FogSequentialForward.fog[47].dispatcher remoteJobs 290
scalar FogSequentialForward.fog[47].dispatcher probeQueries 0
scalar FogSequentialForward.fog[47].dispatcher probeAnswers 0
scalar FogSequentialForward.fog[47].dispatcher droppedJobsSLA 0
scalar FogSequentialForward.fog[47].dispatcher jobs_class_1 3911
scalar FogSequentialForward.fog[47].dispatcher remoteJobs_class_1 290
scalar FogSequentialForward.fog[47].dispatcher localJobs_class_1 3621
scalar FogSequentialForward.fog[47].server[0] rho 0.55991685390472
scalar FogSequentialForward.fog[47].server[0] congestionRatio 0
scalar FogSequentialForward.fog[47].server[0] totalJobs 3621
scalar FogSequentialForward.fog[47].server[0] droppedJobsQueue 0
scalar FogSequentialForward.fog[47].server[0] droppedJobsTimout 0
scalar FogSequentialForward.fog[47].server[0] droppedJobsSLA 0
scalar FogSequentialForward.fog[47].server[0] droppedJobsTotal 0
scalar FogSequentialForward.fog[48].dispatcher localJobs 3519
scalar FogSequentialForward.fog[48].dispatcher internalJobs 3493
scalar FogSequentialForward.fog[48].dispatcher externalJobs 287
scalar FogSequentialForward.fog[48].dispatcher remoteJobs 261
scalar FogSequentialForward.fog[48].dispatcher probeQueries 0
scalar FogSequentialForward.fog[48].dispatcher probeAnswers 0
scalar FogSequentialForward.fog[48].dispatcher droppedJobsSLA 0
scalar FogSequentialForward.fog[48].dispatcher jobs_class_1 3780
scalar FogSequentialForward.fog[48].dispatcher remoteJobs_class_1 261
scalar FogSequentialForward.fog[48].dispatcher localJobs_class_1 3519
scalar FogSequentialForward.fog[48].server[0] rho 0.54416483640671
scalar FogSequentialForward.fog[48].server[0] congestionRatio 0
scalar FogSequentialForward.fog[48].server[0] totalJobs 3519
scalar FogSequentialForward.fog[48].server[0] droppedJobsQueue 0
scalar FogSequentialForward.fog[48].server[0] droppedJobsTimout 0
scalar FogSequentialForward.fog[48].server[0] droppedJobsSLA 0
scalar FogSequentialForward.fog[48].server[0] droppedJobsTotal 0
scalar FogSequentialForward.fog[49].dispatcher localJobs 3651
scalar FogSequentialForward.fog[49].dispatcher internalJobs 3675
scalar FogSequentialForward.fog[49].dispatcher externalJobs 269
scalar FogSequentialForward.fog[49].dispatcher remoteJobs 293
scalar FogSequentialForward.fog[49].dispatcher probeQueries 0
scalar FogSequentialForward.fog[49].dispatcher probeAnswers 0
scalar FogSequentialForward.fog[49].dispatcher droppedJobsSLA 0
scalar FogSequentialForward.fog[49].dispatcher jobs_class_1 3944
scalar FogSequentialForward.fog[49].dispatcher remoteJobs_class_1 293
scalar FogSequentialForward.fog[49].dispatcher localJobs_class_1 3651
scalar FogSequentialForward.fog[49].server[0] rho 0.56426221132278
scalar FogSequentialForward.fog[49].server[0] congestionRatio 0
scalar FogSequentialForward.fog[49].server[0] totalJobs 3651
scalar FogSequentialForward.fog[49].server[0] droppedJobsQueue 0
scalar FogSequentialForward.fog[49].server[0] droppedJobsTimout 0
scalar FogSequentialForward.fog[49].server[0] droppedJobsSLA 0
scalar FogSequentialForward.fog[49].server[0] droppedJobsTotal 0
scalar FogSequentialForward.fog[50].dispatcher localJobs 3578
scalar FogSequentialForward.fog[50].dispatcher internalJobs 3560
scalar FogSequentialForward.fog[50].dispatcher externalJobs 294
scalar FogSequentialForward.fog[50].dispatcher remoteJobs 276
scalar FogSequentialForward.fog[50].dispatcher probeQueries 0
scalar FogSequentialForward.fog[50].dispatcher probeAnswers 0
scalar FogSequentialForward.fog[50].dispatcher droppedJobsSLA 0
scalar FogSequentialForward.fog[50].dispatcher jobs_class_1 3854
scalar FogSequentialForward.fog[50].dispatcher remoteJobs_class_1 276
scalar FogSequentialForward.fog[50].dispatcher localJobs_class_1 3578
scalar FogSequentialForward.fog[50].server[0] rho 0.55334806442261
scalar FogSequentialForward.fog[50].server[0] congestionRatio 0
scalar FogSequentialForward.fog[50].server[0] totalJobs 3578
scalar FogSequentialForward.fog[50].server[0] droppedJobsQueue 0
scalar FogSequentialForward.fog[50].server[0] droppedJobsTimout 0
scalar FogSequentialForward.fog[50].server[0] droppedJobsSLA 0
scalar FogSequentialForward.fog[50].server[0] droppedJobsTotal 0
scalar FogSequentialForward.fog[51].dispatcher localJobs 3629
scalar FogSequentialForward.fog[51].dispatcher internalJobs 3572
scalar FogSequentialForward.fog[51].dispatcher externalJobs 327
scalar FogSequentialForward.fog[51].dispatcher remoteJobs 270
scalar FogSequentialForward.fog[51].dispatcher probeQueries 0
scalar FogSequentialForward.fog[51].dispatcher probeAnswers 0
scalar FogSequentialForward.fog[51].dispatcher droppedJobsSLA 0
scalar FogSequentialForward.fog[51].dispatcher jobs_class_1 3899
scalar FogSequentialForward.fog[51].dispatcher remoteJobs_class_1 270
scalar FogSequentialForward.fog[51].dispatcher localJobs_class_1 3629
scalar FogSequentialForward.fog[51].server[0] rho 0.56145465373993
scalar FogSequentialForward.fog[51].server[0] congestionRatio 0
scalar FogSequentialForward.fog[51].server[0] totalJobs 3629
scalar FogSequentialForward.fog[51].server[0] droppedJobsQueue 0
scalar FogSequentialForward.fog[51].server[0] droppedJobsTimout 0
scalar FogSequentialForward.fog[51].server[0] droppedJobsSLA 0
scalar FogSequentialForward.fog[51].server[0] droppedJobsTotal 0
scalar FogSequentialForward.fog[52].dispatcher localJobs 3558
scalar FogSequentialForward.fog[52].dispatcher internalJobs 3533
scalar FogSequentialForward.fog[52].dispatcher externalJobs 306
scalar FogSequentialForward.fog[52].dispatcher remoteJobs 281
scalar FogSequentialForward.fog[52].dispatcher probeQueries 0
scalar FogSequentialForward.fog[52].dispatcher probeAnswers 0
scalar FogSequentialForward.fog[52].dispatcher droppedJobsSLA 0
scalar FogSequentialForward.fog[52].dispatcher jobs_class_1 3839
scalar FogSequentialForward.fog[52].dispatcher remoteJobs_class_1 281
scalar FogSequentialForward.fog[52].dispatcher localJobs_class_1 3558
scalar FogSequentialForward.fog[52].server[0] rho 0.54981166124344
scalar FogSequentialForward.fog[52].server[0] congestionRatio 0
scalar FogSequentialForward.fog[52].server[0] totalJobs 3558
scalar FogSequentialForward.fog[52].server[0] droppedJobsQueue 0
scalar FogSequentialForward.fog[52].server[0] droppedJobsTimout 0
scalar FogSequentialForward.fog[52].server[0] droppedJobsSLA 0
scalar FogSequentialForward.fog[52].server[0] droppedJobsTotal 0
scalar FogSequentialForward.fog[53].dispatcher localJobs 3700
scalar FogSequentialForward.fog[53].dispatcher internalJobs 3705
scalar FogSequentialForward.fog[53].dispatcher externalJobs 289
scalar FogSequentialForward.fog[53].dispatcher remoteJobs 294
scalar FogSequentialForward.fog[53].dispatcher probeQueries 0
scalar FogSequentialForward.fog[53].dispatcher probeAnswers 0
scalar FogSequentialForward.fog[53].dispatcher droppedJobsSLA 0
scalar FogSequentialForward.fog[53].dispatcher jobs_class_1 3994
scalar FogSequentialForward.fog[53].dispatcher remoteJobs_class_1 294
scalar FogSequentialForward.fog[53].dispatcher localJobs_class_1 3700
scalar FogSequentialForward.fog[53].server[0] rho 0.5722804069519
scalar FogSequentialForward.fog[53].server[0] congestionRatio 0
scalar FogSequentialForward.fog[53].server[0] totalJobs 3700
scalar FogSequentialForward.fog[53].server[0] droppedJobsQueue 0
scalar FogSequentialForward.fog[53].server[0] droppedJobsTimout 0
scalar FogSequentialForward.fog[53].server[0] droppedJobsSLA 0
scalar FogSequentialForward.fog[53].server[0] droppedJobsTotal 0
scalar FogSequentialForward.fog[54].dispatcher localJobs 3560
scalar FogSequentialForward.fog[54].dispatcher internalJobs 3580
scalar FogSequentialForward.fog[54].dispatcher externalJobs 262
scalar FogSequentialForward.fog[54].dispatcher remoteJobs 282
scalar FogSequentialForward.fog[54].dispatcher probeQueries 0
scalar FogSequentialForward.fog[54].dispatcher probeAnswers 0
scalar FogSequentialForward.fog[54].dispatcher droppedJobsSLA 0
scalar FogSequentialForward.fog[54].dispatcher jobs_class_1 3842
scalar FogSequentialForward.fog[54].dispatcher remoteJobs_class_1 282
scalar FogSequentialForward.fog[54].dispatcher localJobs_class_1 3560
scalar FogSequentialForward.fog[54].server[0] rho 0.5505433678627
scalar FogSequentialForward.fog[54].server[0] congestionRatio 0
scalar FogSequentialForward.fog[54].server[0] totalJobs 3560
scalar FogSequentialForward.fog[54].server[0] droppedJobsQueue 0
scalar FogSequentialForward.fog[54].server[0] droppedJobsTimout 0
scalar FogSequentialForward.fog[54].server[0] droppedJobsSLA 0
scalar FogSequentialForward.fog[54].server[0] droppedJobsTotal 0
scalar FogSequentialForward.fog[55].dispatcher localJobs 3637
scalar FogSequentialForward.fog[55].dispatcher internalJobs 3622
scalar FogSequentialForward.fog[55].dispatcher externalJobs 291
scalar FogSequentialForward.fog[55].dispatcher remoteJobs 276
scalar FogSequentialForward.fog[55].dispatcher probeQueries 0
scalar FogSequentialForward.fog[55].dispatcher probeAnswers 0
scalar FogSequentialForward.fog[55].dispatcher droppedJobsSLA 0
scalar FogSequentialForward.fog[55].dispatcher jobs_class_1 3913
scalar FogSequentialForward.fog[55].dispatcher remoteJobs_class_1 276
scalar FogSequentialForward.fog[55].dispatcher localJobs_class_1 3637
scalar FogSequentialForward.fog[55].server[0] rho 0.56210339069366
scalar FogSequentialForward.fog[55].server[0] congestionRatio 0
scalar FogSequentialForward.fog[55].server[0] totalJobs 3637
scalar FogSequentialForward.fog[55].server[0] droppedJobsQueue 0
scalar FogSequentialForward.fog[55].server[0] droppedJobsTimout 0
scalar FogSequentialForward.fog[55].server[0] droppedJobsSLA 0
scalar FogSequentialForward.fog[55].server[0] droppedJobsTotal 0
scalar FogSequentialForward.fog[56].dispatcher localJobs 3487
scalar FogSequentialForward.fog[56].dispatcher internalJobs 3496
scalar FogSequentialForward.fog[56].dispatcher externalJobs 276
scalar FogSequentialForward.fog[56].dispatcher remoteJobs 285
scalar FogSequentialForward.fog[56].dispatcher probeQueries 0
scalar FogSequentialForward.fog[56].dispatcher probeAnswers 0
scalar FogSequentialForward.fog[56].dispatcher droppedJobsSLA 0
scalar FogSequentialForward.fog[56].dispatcher jobs_class_1 3772
scalar FogSequentialForward.fog[56].dispatcher remoteJobs_class_1 285
scalar FogSequentialForward.fog[56].dispatcher localJobs_class_1 3487
scalar FogSequentialForward.fog[56].server[0] rho 0.5393859744072
scalar FogSequentialForward.fog[56].server[0] congestionRatio 0
scalar FogSequentialForward.fog[56].server[0] totalJobs 3487
scalar FogSequentialForward.fog[56].server[0] droppedJobsQueue 0
scalar FogSequentialForward.fog[56].server[0] droppedJobsTimout 0
scalar FogSequentialForward.fog[56].server[0] droppedJobsSLA 0
scalar FogSequentialForward.fog[56].server[0] droppedJobsTotal 0
scalar FogSequentialForward.fog[57].dispatcher localJobs 3559
scalar FogSequentialForward.fog[57].dispatcher internalJobs 3531
scalar FogSequentialForward.fog[57].dispatcher externalJobs 300
scalar FogSequentialForward.fog[57].dispatcher remoteJobs 272
scalar FogSequentialForward.fog[57].dispatcher probeQueries 0
scalar FogSequentialForward.fog[57].dispatcher probeAnswers 0
scalar FogSequentialForward.fog[57].dispatcher droppedJobsSLA 0
scalar FogSequentialForward.fog[57].dispatcher jobs_class_1 3831
scalar FogSequentialForward.fog[57].dispatcher remoteJobs_class_1 272
scalar FogSequentialForward.fog[57].dispatcher localJobs_class_1 3559
scalar FogSequentialForward.fog[57].server[0] rho 0.54994267225266
scalar FogSequentialForward.fog[57].server[0] congestionRatio 0
scalar FogSequentialForward.fog[57].server[0] totalJobs 3559
scalar FogSequentialForward.fog[57].server[0] droppedJobsQueue 0
scalar FogSequentialForward.fog[57].server[0] droppedJobsTimout 0
scalar FogSequentialForward.fog[57].server[0] droppedJobsSLA 0
scalar FogSequentialForward.fog[57].server[0] droppedJobsTotal 0
scalar FogSequentialForward.fog[58].dispatcher localJobs 3596
scalar FogSequentialForward.fog[58].dispatcher internalJobs 3609
scalar FogSequentialForward.fog[58].dispatcher externalJobs 272
scalar FogSequentialForward.fog[58].dispatcher remoteJobs 285
scalar FogSequentialForward.fog[58].dispatcher probeQueries 0
scalar FogSequentialForward.fog[58].dispatcher probeAnswers 0
scalar FogSequentialForward.fog[58].dispatcher droppedJobsSLA 0
scalar FogSequentialForward.fog[58].dispatcher jobs_class_1 3881
scalar FogSequentialForward.fog[58].dispatcher remoteJobs_class_1 285
scalar FogSequentialForward.fog[58].dispatcher localJobs_class_1 3596
scalar FogSequentialForward.fog[58].server[0] rho 0.5557901263237
scalar FogSequentialForward.fog[58].server[0] congestionRatio 0
scalar FogSequentialForward.fog[58].server[0] totalJobs 3596
scalar FogSequentialForward.fog[58].server[0] droppedJobsQueue 0
scalar FogSequentialForward.fog[58].server[0] droppedJobsTimout 0
scalar FogSequentialForward.fog[58].server[0] droppedJobsSLA 0
scalar FogSequentialForward.fog[58].server[0] droppedJobsTotal 0
scalar FogSequentialForward.fog[59].dispatcher localJobs 3613
scalar FogSequentialForward.fog[59].dispatcher internalJobs 3636
scalar FogSequentialForward.fog[59].dispatcher externalJobs 292
scalar FogSequentialForward.fog[59].dispatcher remoteJobs 315
scalar FogSequentialForward.fog[59].dispatcher probeQueries 0
scalar FogSequentialForward.fog[59].dispatcher probeAnswers 0
scalar FogSequentialForward.fog[59].dispatcher droppedJobsSLA 0
scalar FogSequentialForward.fog[59].dispatcher jobs_class_1 3928
scalar FogSequentialForward.fog[59].dispatcher remoteJobs_class_1 315
scalar FogSequentialForward.fog[59].dispatcher localJobs_class_1 3613
scalar FogSequentialForward.fog[59].server[0] rho 0.55846601724625
scalar FogSequentialForward.fog[59].server[0] congestionRatio 0
scalar FogSequentialForward.fog[59].server[0] totalJobs 3613
scalar FogSequentialForward.fog[59].server[0] droppedJobsQueue 0
scalar FogSequentialForward.fog[59].server[0] droppedJobsTimout 0
scalar FogSequentialForward.fog[59].server[0] droppedJobsSLA 0
scalar FogSequentialForward.fog[59].server[0] droppedJobsTotal 0
scalar FogSequentialForward.fog[60].dispatcher localJobs 3537
scalar FogSequentialForward.fog[60].dispatcher internalJobs 3507
scalar FogSequentialForward.fog[60].dispatcher externalJobs 299
scalar FogSequentialForward.fog[60].dispatcher remoteJobs 269
scalar FogSequentialForward.fog[60].dispatcher probeQueries 0
scalar FogSequentialForward.fog[60].dispatcher probeAnswers 0
scalar FogSequentialForward.fog[60].dispatcher droppedJobsSLA 0
scalar FogSequentialForward.fog[60].dispatcher jobs_class_1 3806
scalar FogSequentialForward.fog[60].dispatcher remoteJobs_class_1 269
scalar FogSequentialForward.fog[60].dispatcher localJobs_class_1 3537
scalar FogSequentialForward.fog[60].server[0] rho 0.54725784063339
scalar FogSequentialForward.fog[60].server[0] congestionRatio 0
scalar FogSequentialForward.fog[60].server[0] totalJobs 3537
scalar FogSequentialForward.fog[60].server[0] droppedJobsQueue 0
scalar FogSequentialForward.fog[60].server[0] droppedJobsTimout 0
scalar FogSequentialForward.fog[60].server[0] droppedJobsSLA 0
scalar FogSequentialForward.fog[60].server[0] droppedJobsTotal 0
scalar FogSequentialForward.fog[61].dispatcher localJobs 3600
scalar FogSequentialForward.fog[61].dispatcher internalJobs 3598
scalar FogSequentialForward.fog[61].dispatcher externalJobs 282
scalar FogSequentialForward.fog[61].dispatcher remoteJobs 280
scalar FogSequentialForward.fog[61].dispatcher probeQueries 0
scalar FogSequentialForward.fog[61].dispatcher probeAnswers 0
scalar FogSequentialForward.fog[61].dispatcher droppedJobsSLA 0
scalar FogSequentialForward.fog[61].dispatcher jobs_class_1 3880
scalar FogSequentialForward.fog[61].dispatcher remoteJobs_class_1 280
scalar FogSequentialForward.fog[61].dispatcher localJobs_class_1 3600
scalar FogSequentialForward.fog[61].server[0] rho 0.55644100904465
scalar FogSequentialForward.fog[61].server[0] congestionRatio 0
scalar FogSequentialForward.fog[61].server[0] totalJobs 3600
scalar FogSequentialForward.fog[61].server[0] droppedJobsQueue 0
scalar FogSequentialForward.fog[61].server[0] droppedJobsTimout 0
scalar FogSequentialForward.fog[61].server[0] droppedJobsSLA 0
scalar FogSequentialForward.fog[61].server[0] droppedJobsTotal 0
scalar FogSequentialForward.fog[62].dispatcher localJobs 3612
scalar FogSequentialForward.fog[62].dispatcher internalJobs 3599
scalar FogSequentialForward.fog[62].dispatcher externalJobs 289
scalar FogSequentialForward.fog[62].dispatcher remoteJobs 276
scalar FogSequentialForward.fog[62].dispatcher probeQueries 0
scalar FogSequentialForward.fog[62].dispatcher probeAnswers 0
scalar FogSequentialForward.fog[62].dispatcher droppedJobsSLA 0
scalar FogSequentialForward.fog[62].dispatcher jobs_class_1 3888
scalar FogSequentialForward.fog[62].dispatcher remoteJobs_class_1 276
scalar FogSequentialForward.fog[62].dispatcher localJobs_class_1 3612
scalar FogSequentialForward.fog[62].server[0] rho 0.55834549665451
scalar FogSequentialForward.fog[62].server[0] congestionRatio 0
scalar FogSequentialForward.fog[62].server[0] totalJobs 3612
scalar FogSequentialForward.fog[62].server[0] droppedJobsQueue 0
scalar FogSequentialForward.fog[62].server[0] droppedJobsTimout 0
scalar FogSequentialForward.fog[62].server[0] droppedJobsSLA 0
scalar FogSequentialForward.fog[62].server[0] droppedJobsTotal 0
scalar FogSequentialForward.fog[63].dispatcher localJobs 3594
scalar FogSequentialForward.fog[63].dispatcher internalJobs 3603
scalar FogSequentialForward.fog[63].dispatcher externalJobs 275
scalar FogSequentialForward.fog[63].dispatcher remoteJobs 284
scalar FogSequentialForward.fog[63].dispatcher probeQueries 0
scalar FogSequentialForward.fog[63].dispatcher probeAnswers 0
scalar FogSequentialForward.fog[63].dispatcher droppedJobsSLA 0
scalar FogSequentialForward.fog[63].dispatcher jobs_class_1 3878
scalar FogSequentialForward.fog[63].dispatcher remoteJobs_class_1 284
scalar FogSequentialForward.fog[63].dispatcher localJobs_class_1 3594
scalar FogSequentialForward.fog[63].server[0] rho 0.55553954839706
scalar FogSequentialForward.fog[63].server[0] congestionRatio 0
scalar FogSequentialForward.fog[63].server[0] totalJobs 3594
scalar FogSequentialForward.fog[63].server[0] droppedJobsQueue 0
scalar FogSequentialForward.fog[63].server[0] droppedJobsTimout 0
scalar FogSequentialForward.fog[63].server[0] droppedJobsSLA 0
scalar FogSequentialForward.fog[63].server[0] droppedJobsTotal 0
scalar FogSequentialForward.fog[64].dispatcher localJobs 3657
scalar FogSequentialForward.fog[64].dispatcher internalJobs 3713
scalar FogSequentialForward.fog[64].dispatcher externalJobs 250
scalar FogSequentialForward.fog[64].dispatcher remoteJobs 306
scalar FogSequentialForward.fog[64].dispatcher probeQueries 0
scalar FogSequentialForward.fog[64].dispatcher probeAnswers 0
scalar FogSequentialForward.fog[64].dispatcher droppedJobsSLA 0
scalar FogSequentialForward.fog[64].dispatcher jobs_class_1 3963
scalar FogSequentialForward.fog[64].dispatcher remoteJobs_class_1 306
scalar FogSequentialForward.fog[64].dispatcher localJobs_class_1 3657
scalar FogSequentialForward.fog[64].server[0] rho 0.56526327133179
scalar FogSequentialForward.fog[64].server[0] congestionRatio 0
scalar FogSequentialForward.fog[64].server[0] totalJobs 3657
scalar FogSequentialForward.fog[64].server[0] droppedJobsQueue 0
scalar FogSequentialForward.fog[64].server[0] droppedJobsTimout 0
scalar FogSequentialForward.fog[64].server[0] droppedJobsSLA 0
scalar FogSequentialForward.fog[64].server[0] droppedJobsTotal 0
scalar FogSequentialForward.fog[65].dispatcher localJobs 3643
scalar FogSequentialForward.fog[65].dispatcher internalJobs 3665
scalar FogSequentialForward.fog[65].dispatcher externalJobs 295
scalar FogSequentialForward.fog[65].dispatcher remoteJobs 317
scalar FogSequentialForward.fog[65].dispatcher probeQueries 0
scalar FogSequentialForward.fog[65].dispatcher probeAnswers 0
scalar FogSequentialForward.fog[65].dispatcher droppedJobsSLA 0
scalar FogSequentialForward.fog[65].dispatcher jobs_class_1 3960
scalar FogSequentialForward.fog[65].dispatcher remoteJobs_class_1 317
scalar FogSequentialForward.fog[65].dispatcher localJobs_class_1 3643
scalar FogSequentialForward.fog[65].server[0] rho 0.56344753503799
scalar FogSequentialForward.fog[65].server[0] congestionRatio 0
scalar FogSequentialForward.fog[65].server[0] totalJobs 3643
scalar FogSequentialForward.fog[65].server[0] droppedJobsQueue 0
scalar FogSequentialForward.fog[65].server[0] droppedJobsTimout 0
scalar FogSequentialForward.fog[65].server[0] droppedJobsSLA 0
scalar FogSequentialForward.fog[65].server[0] droppedJobsTotal 0
scalar FogSequentialForward.fog[66].dispatcher localJobs 3637
scalar FogSequentialForward.fog[66].dispatcher internalJobs 3639
scalar FogSequentialForward.fog[66].dispatcher externalJobs 285
scalar FogSequentialForward.fog[66].dispatcher remoteJobs 287
scalar FogSequentialForward.fog[66].dispatcher probeQueries 0
scalar FogSequentialForward.fog[66].dispatcher probeAnswers 0
scalar FogSequentialForward.fog[66].dispatcher droppedJobsSLA 0
scalar FogSequentialForward.fog[66].dispatcher jobs_class_1 3924
scalar FogSequentialForward.fog[66].dispatcher remoteJobs_class_1 287
scalar FogSequentialForward.fog[66].dispatcher localJobs_class_1 3637
scalar FogSequentialForward.fog[66].server[0] rho 0.56252783536911
scalar FogSequentialForward.fog[66].server[0] congestionRatio 0
scalar FogSequentialForward.fog[66].server[0] totalJobs 3637
scalar FogSequentialForward.fog[66].server[0] droppedJobsQueue 0
scalar FogSequentialForward.fog[66].server[0] droppedJobsTimout 0
scalar FogSequentialForward.fog[66].server[0] droppedJobsSLA 0
scalar FogSequentialForward.fog[66].server[0] droppedJobsTotal 0
scalar FogSequentialForward.fog[67].dispatcher localJobs 3631
scalar FogSequentialForward.fog[67].dispatcher internalJobs 3669
scalar FogSequentialForward.fog[67].dispatcher externalJobs 276
scalar FogSequentialForward.fog[67].dispatcher remoteJobs 314
scalar FogSequentialForward.fog[67].dispatcher probeQueries 0
scalar FogSequentialForward.fog[67].dispatcher probeAnswers 0
scalar FogSequentialForward.fog[67].dispatcher droppedJobsSLA 0
scalar FogSequentialForward.fog[67].dispatcher jobs_class_1 3945
scalar FogSequentialForward.fog[67].dispatcher remoteJobs_class_1 314
scalar FogSequentialForward.fog[67].dispatcher localJobs_class_1 3631
scalar FogSequentialForward.fog[67].server[0] rho 0.5616472363472
scalar FogSequentialForward.fog[67].server[0] congestionRatio 0
scalar FogSequentialForward.fog[67].server[0] totalJobs 3631
scalar FogSequentialForward.fog[67].server[0] droppedJobsQueue 0
scalar FogSequentialForward.fog[67].server[0] droppedJobsTimout 0
scalar FogSequentialForward.fog[67].server[0] droppedJobsSLA 0
scalar FogSequentialForward.fog[67].server[0] droppedJobsTotal 0
scalar FogSequentialForward.fog[68].dispatcher localJobs 3634
scalar FogSequentialForward.fog[68].dispatcher internalJobs 3631
scalar FogSequentialForward.fog[68].dispatcher externalJobs 278
scalar FogSequentialForward.fog[68].dispatcher remoteJobs 275
scalar FogSequentialForward.fog[68].dispatcher probeQueries 0
scalar FogSequentialForward.fog[68].dispatcher probeAnswers 0
scalar FogSequentialForward.fog[68].dispatcher droppedJobsSLA 0
scalar FogSequentialForward.fog[68].dispatcher jobs_class_1 3909
scalar FogSequentialForward.fog[68].dispatcher remoteJobs_class_1 275
scalar FogSequentialForward.fog[68].dispatcher localJobs_class_1 3634
scalar FogSequentialForward.fog[68].server[0] rho 0.56201815605164
scalar FogSequentialForward.fog[68].server[0] congestionRatio 0
scalar FogSequentialForward.fog[68].server[0] totalJobs 3634
scalar FogSequentialForward.fog[68].server[0] droppedJobsQueue 0
scalar FogSequentialForward.fog[68].server[0] droppedJobsTimout 0
scalar FogSequentialForward.fog[68].server[0] droppedJobsSLA 0
scalar FogSequentialForward.fog[68].server[0] droppedJobsTotal 0
scalar FogSequentialForward.fog[69].dispatcher localJobs 3633
scalar FogSequentialForward.fog[69].dispatcher internalJobs 3696
scalar FogSequentialForward.fog[69].dispatcher externalJobs 242
scalar FogSequentialForward.fog[69].dispatcher remoteJobs 305
scalar FogSequentialForward.fog[69].dispatcher probeQueries 0
scalar FogSequentialForward.fog[69].dispatcher probeAnswers 0
scalar FogSequentialForward.fog[69].dispatcher droppedJobsSLA 0
scalar FogSequentialForward.fog[69].dispatcher jobs_class_1 3938
scalar FogSequentialForward.fog[69].dispatcher remoteJobs_class_1 305
scalar FogSequentialForward.fog[69].dispatcher localJobs_class_1 3633
scalar FogSequentialForward.fog[69].server[0] rho 0.56215107440948
scalar FogSequentialForward.fog[69].server[0] congestionRatio 0
scalar FogSequentialForward.fog[69].server[0] totalJobs 3633
scalar FogSequentialForward.fog[69].server[0] droppedJobsQueue 0
scalar FogSequentialForward.fog[69].server[0] droppedJobsTimout 0
scalar FogSequentialForward.fog[69].server[0] droppedJobsSLA 0
scalar FogSequentialForward.fog[69].server[0] droppedJobsTotal 0
scalar FogSequentialForward.fog[70].dispatcher localJobs 3577
scalar FogSequentialForward.fog[70].dispatcher internalJobs 3610
scalar FogSequentialForward.fog[70].dispatcher externalJobs 278
scalar FogSequentialForward.fog[70].dispatcher remoteJobs 311
scalar FogSequentialForward.fog[70].dispatcher probeQueries 0
scalar FogSequentialForward.fog[70].dispatcher probeAnswers 0
scalar FogSequentialForward.fog[70].dispatcher droppedJobsSLA 0
scalar FogSequentialForward.fog[70].dispatcher jobs_class_1 3888
scalar FogSequentialForward.fog[70].dispatcher remoteJobs_class_1 311
scalar FogSequentialForward.fog[70].dispatcher localJobs_class_1 3577
scalar FogSequentialForward.fog[70].server[0] rho 0.55323296785355
scalar FogSequentialForward.fog[70].server[0] congestionRatio 0
scalar FogSequentialForward.fog[70].server[0] totalJobs 3577
scalar FogSequentialForward.fog[70].server[0] droppedJobsQueue 0
scalar FogSequentialForward.fog[70].server[0] droppedJobsTimout 0
scalar FogSequentialForward.fog[70].server[0] droppedJobsSLA 0
scalar FogSequentialForward.fog[70].server[0] droppedJobsTotal 0
scalar FogSequentialForward.fog[71].dispatcher localJobs 3642
scalar FogSequentialForward.fog[71].dispatcher internalJobs 3660
scalar FogSequentialForward.fog[71].dispatcher externalJobs 276
scalar FogSequentialForward.fog[71].dispatcher remoteJobs 294
scalar FogSequentialForward.fog[71].dispatcher probeQueries 0
scalar FogSequentialForward.fog[71].dispatcher probeAnswers 0
scalar FogSequentialForward.fog[71].dispatcher droppedJobsSLA 0
scalar FogSequentialForward.fog[71].dispatcher jobs_class_1 3936
scalar FogSequentialForward.fog[71].dispatcher remoteJobs_class_1 294
scalar FogSequentialForward.fog[71].dispatcher localJobs_class_1 3642
scalar FogSequentialForward.fog[71].server[0] rho 0.56300204992294
scalar FogSequentialForward.fog[71].server[0] congestionRatio 0
scalar FogSequentialForward.fog[71].server[0] totalJobs 3642
scalar FogSequentialForward.fog[71].server[0] droppedJobsQueue 0
scalar FogSequentialForward.fog[71].server[0] droppedJobsTimout 0
[...]
scalar FogSequentialForward.fog[82].server[0] droppedJobsQueue 0
scalar FogSequentialForward.fog[82].server[0] droppedJobsTimout 0
scalar FogSequentialForward.fog[82].server[0] droppedJobsSLA 0
scalar FogSequentialForward.fog[82].server[0] droppedJobsTotal 0
scalar FogSequentialForward.fog[83].dispatcher localJobs 3538
scalar FogSequentialForward.fog[83].dispatcher internalJobs 3566
scalar FogSequentialForward.fog[83].dispatcher externalJobs 256
scalar FogSequentialForward.fog[83].dispatcher remoteJobs 284
scalar FogSequentialForward.fog[83].dispatcher probeQueries 0
scalar FogSequentialForward.fog[83].dispatcher probeAnswers 0
scalar FogSequentialForward.fog[83].dispatcher droppedJobsSLA 0
scalar FogSequentialForward.fog[83].dispatcher jobs_class_1 3822
scalar FogSequentialForward.fog[83].dispatcher remoteJobs_class_1 284
scalar FogSequentialForward.fog[83].dispatcher localJobs_class_1 3538
scalar FogSequentialForward.fog[83].server[0] rho 0.54697412252426
scalar FogSequentialForward.fog[83].server[0] congestionRatio 0
scalar FogSequentialForward.fog[83].server[0] totalJobs 3538
scalar FogSequentialForward.fog[83].server[0] droppedJobsQueue 0
scalar FogSequentialForward.fog[83].server[0] droppedJobsTimout 0
scalar FogSequentialForward.fog[83].server[0] droppedJobsSLA 0
scalar FogSequentialForward.fog[83].server[0] droppedJobsTotal 0
scalar FogSequentialForward.fog[84].dispatcher localJobs 3639
scalar FogSequentialForward.fog[84].dispatcher internalJobs 3618
scalar FogSequentialForward.fog[84].dispatcher externalJobs 275
scalar FogSequentialForward.fog[84].dispatcher remoteJobs 254
scalar FogSequentialForward.fog[84].dispatcher probeQueries 0
scalar FogSequentialForward.fog[84].dispatcher probeAnswers 0
scalar FogSequentialForward.fog[84].dispatcher droppedJobsSLA 0
scalar FogSequentialForward.fog[84].dispatcher jobs_class_1 3893
scalar FogSequentialForward.fog[84].dispatcher remoteJobs_class_1 254
scalar FogSequentialForward.fog[84].dispatcher localJobs_class_1 3639
scalar FogSequentialForward.fog[84].server[0] rho 0.5626785159111
scalar FogSequentialForward.fog[84].server[0] congestionRatio 0
scalar FogSequentialForward.fog[84].server[0] totalJobs 3639
scalar FogSequentialForward.fog[84].server[0] droppedJobsQueue 0
scalar FogSequentialForward.fog[84].server[0] droppedJobsTimout 0
scalar FogSequentialForward.fog[84].server[0] droppedJobsSLA 0
scalar FogSequentialForward.fog[84].server[0] droppedJobsTotal 0
scalar FogSequentialForward.fog[85].dispatcher localJobs 3747
scalar FogSequentialForward.fog[85].dispatcher internalJobs 3767
scalar FogSequentialForward.fog[85].dispatcher externalJobs 283
scalar FogSequentialForward.fog[85].dispatcher remoteJobs 303
scalar FogSequentialForward.fog[85].dispatcher probeQueries 0
scalar FogSequentialForward.fog[85].dispatcher probeAnswers 0
scalar FogSequentialForward.fog[85].dispatcher droppedJobsSLA 0
scalar FogSequentialForward.fog[85].dispatcher jobs_class_1 4050
scalar FogSequentialForward.fog[85].dispatcher remoteJobs_class_1 303
scalar FogSequentialForward.fog[85].dispatcher localJobs_class_1 3747
scalar FogSequentialForward.fog[85].server[0] rho 0.5793634057045
scalar FogSequentialForward.fog[85].server[0] congestionRatio 0
scalar FogSequentialForward.fog[85].server[0] totalJobs 3747
scalar FogSequentialForward.fog[85].server[0] droppedJobsQueue 0
scalar FogSequentialForward.fog[85].server[0] droppedJobsTimout 0
scalar FogSequentialForward.fog[85].server[0] droppedJobsSLA 0
scalar FogSequentialForward.fog[85].server[0] droppedJobsTotal 0
scalar FogSequentialForward.fog[86].dispatcher localJobs 3576
scalar FogSequentialForward.fog[86].dispatcher internalJobs 3587
scalar FogSequentialForward.fog[86].dispatcher externalJobs 281
scalar FogSequentialForward.fog[86].dispatcher remoteJobs 292
scalar FogSequentialForward.fog[86].dispatcher probeQueries 0
scalar FogSequentialForward.fog[86].dispatcher probeAnswers 0
scalar FogSequentialForward.fog[86].dispatcher droppedJobsSLA 0
scalar FogSequentialForward.fog[86].dispatcher jobs_class_1 3868
scalar FogSequentialForward.fog[86].dispatcher remoteJobs_class_1 292
scalar FogSequentialForward.fog[86].dispatcher localJobs_class_1 3576
scalar FogSequentialForward.fog[86].server[0] rho 0.55296385288239
scalar FogSequentialForward.fog[86].server[0] congestionRatio 0
scalar FogSequentialForward.fog[86].server[0] totalJobs 3576
scalar FogSequentialForward.fog[86].server[0] droppedJobsQueue 0
scalar FogSequentialForward.fog[86].server[0] droppedJobsTimout 0
scalar FogSequentialForward.fog[86].server[0] droppedJobsSLA 0
scalar FogSequentialForward.fog[86].server[0] droppedJobsTotal 0
scalar FogSequentialForward.fog[87].dispatcher localJobs 3615
scalar FogSequentialForward.fog[87].dispatcher internalJobs 3571
scalar FogSequentialForward.fog[87].dispatcher externalJobs 306
scalar FogSequentialForward.fog[87].dispatcher remoteJobs 262
scalar FogSequentialForward.fog[87].dispatcher probeQueries 0
scalar FogSequentialForward.fog[87].dispatcher probeAnswers 0
scalar FogSequentialForward.fog[87].dispatcher droppedJobsSLA 0
scalar FogSequentialForward.fog[87].dispatcher jobs_class_1 3877
scalar FogSequentialForward.fog[87].dispatcher remoteJobs_class_1 262
scalar FogSequentialForward.fog[87].dispatcher localJobs_class_1 3615
scalar FogSequentialForward.fog[87].server[0] rho 0.55850607156754
scalar FogSequentialForward.fog[87].server[0] congestionRatio 0
scalar FogSequentialForward.fog[87].server[0] totalJobs 3615
scalar FogSequentialForward.fog[87].server[0] droppedJobsQueue 0
scalar FogSequentialForward.fog[87].server[0] droppedJobsTimout 0
scalar FogSequentialForward.fog[87].server[0] droppedJobsSLA 0
scalar FogSequentialForward.fog[87].server[0] droppedJobsTotal 0
scalar FogSequentialForward.fog[88].dispatcher localJobs 3627
scalar FogSequentialForward.fog[88].dispatcher internalJobs 3623
scalar FogSequentialForward.fog[88].dispatcher externalJobs 268
scalar FogSequentialForward.fog[88].dispatcher remoteJobs 264
scalar FogSequentialForward.fog[88].dispatcher probeQueries 0
scalar FogSequentialForward.fog[88].dispatcher probeAnswers 0
scalar FogSequentialForward.fog[88].dispatcher droppedJobsSLA 0
scalar FogSequentialForward.fog[88].dispatcher jobs_class_1 3891
scalar FogSequentialForward.fog[88].dispatcher remoteJobs_class_1 264
scalar FogSequentialForward.fog[88].dispatcher localJobs_class_1 3627
scalar FogSequentialForward.fog[88].server[0] rho 0.56124967336655
scalar FogSequentialForward.fog[88].server[0] congestionRatio 0
scalar FogSequentialForward.fog[88].server[0] totalJobs 3627
scalar FogSequentialForward.fog[88].server[0] droppedJobsQueue 0
scalar FogSequentialForward.fog[88].server[0] droppedJobsTimout 0
scalar FogSequentialForward.fog[88].server[0] droppedJobsSLA 0
scalar FogSequentialForward.fog[88].server[0] droppedJobsTotal 0
scalar FogSequentialForward.fog[89].dispatcher localJobs 3657
scalar FogSequentialForward.fog[89].dispatcher internalJobs 3635
scalar FogSequentialForward.fog[89].dispatcher externalJobs 301
scalar FogSequentialForward.fog[89].dispatcher remoteJobs 279
scalar FogSequentialForward.fog[89].dispatcher probeQueries 0
scalar FogSequentialForward.fog[89].dispatcher probeAnswers 0
scalar FogSequentialForward.fog[89].dispatcher droppedJobsSLA 0
scalar FogSequentialForward.fog[89].dispatcher jobs_class_1 3936
scalar FogSequentialForward.fog[89].dispatcher remoteJobs_class_1 279
scalar FogSequentialForward.fog[89].dispatcher localJobs_class_1 3657
scalar FogSequentialForward.fog[89].server[0] rho 0.56528264284134
scalar FogSequentialForward.fog[89].server[0] congestionRatio 0
scalar FogSequentialForward.fog[89].server[0] totalJobs 3657
scalar FogSequentialForward.fog[89].server[0] droppedJobsQueue 0
scalar FogSequentialForward.fog[89].server[0] droppedJobsTimout 0
scalar FogSequentialForward.fog[89].server[0] droppedJobsSLA 0
scalar FogSequentialForward.fog[89].server[0] droppedJobsTotal 0
scalar FogSequentialForward.fog[90].dispatcher localJobs 3541
scalar FogSequentialForward.fog[90].dispatcher internalJobs 3560
scalar FogSequentialForward.fog[90].dispatcher externalJobs 262
scalar FogSequentialForward.fog[90].dispatcher remoteJobs 281
scalar FogSequentialForward.fog[90].dispatcher probeQueries 0
scalar FogSequentialForward.fog[90].dispatcher probeAnswers 0
scalar FogSequentialForward.fog[90].dispatcher droppedJobsSLA 0
scalar FogSequentialForward.fog[90].dispatcher jobs_class_1 3822
scalar FogSequentialForward.fog[90].dispatcher remoteJobs_class_1 281
scalar FogSequentialForward.fog[90].dispatcher localJobs_class_1 3541
scalar FogSequentialForward.fog[90].server[0] rho 0.54760056734085
scalar FogSequentialForward.fog[90].server[0] congestionRatio 0
scalar FogSequentialForward.fog[90].server[0] totalJobs 3541
scalar FogSequentialForward.fog[90].server[0] droppedJobsQueue 0
scalar FogSequentialForward.fog[90].server[0] droppedJobsTimout 0
scalar FogSequentialForward.fog[90].server[0] droppedJobsSLA 0
scalar FogSequentialForward.fog[90].server[0] droppedJobsTotal 0
scalar FogSequentialForward.fog[91].dispatcher localJobs 3549
scalar FogSequentialForward.fog[91].dispatcher internalJobs 3552
scalar FogSequentialForward.fog[91].dispatcher externalJobs 269
scalar FogSequentialForward.fog[91].dispatcher remoteJobs 272
scalar FogSequentialForward.fog[91].dispatcher probeQueries 0
scalar FogSequentialForward.fog[91].dispatcher probeAnswers 0
scalar FogSequentialForward.fog[91].dispatcher droppedJobsSLA 0
scalar FogSequentialForward.fog[91].dispatcher jobs_class_1 3821
scalar FogSequentialForward.fog[91].dispatcher remoteJobs_class_1 272
scalar FogSequentialForward.fog[91].dispatcher localJobs_class_1 3549
scalar FogSequentialForward.fog[91].server[0] rho 0.54883235692978
scalar FogSequentialForward.fog[91].server[0] congestionRatio 0
scalar FogSequentialForward.fog[91].server[0] totalJobs 3549
scalar FogSequentialForward.fog[91].server[0] droppedJobsQueue 0
scalar FogSequentialForward.fog[91].server[0] droppedJobsTimout 0
scalar FogSequentialForward.fog[91].server[0] droppedJobsSLA 0
scalar FogSequentialForward.fog[91].server[0] droppedJobsTotal 0
scalar FogSequentialForward.fog[92].dispatcher localJobs 3535
scalar FogSequentialForward.fog[92].dispatcher internalJobs 3542
scalar FogSequentialForward.fog[92].dispatcher externalJobs 281
scalar FogSequentialForward.fog[92].dispatcher remoteJobs 288
scalar FogSequentialForward.fog[92].dispatcher probeQueries 0
scalar FogSequentialForward.fog[92].dispatcher probeAnswers 0
scalar FogSequentialForward.fog[92].dispatcher droppedJobsSLA 0
scalar FogSequentialForward.fog[92].dispatcher jobs_class_1 3823
scalar FogSequentialForward.fog[92].dispatcher remoteJobs_class_1 288
scalar FogSequentialForward.fog[92].dispatcher localJobs_class_1 3535
scalar FogSequentialForward.fog[92].server[0] rho 0.54653894901276
scalar FogSequentialForward.fog[92].server[0] congestionRatio 0
scalar FogSequentialForward.fog[92].server[0] totalJobs 3535
scalar FogSequentialForward.fog[92].server[0] droppedJobsQueue 0
scalar FogSequentialForward.fog[92].server[0] droppedJobsTimout 0
scalar FogSequentialForward.fog[92].server[0] droppedJobsSLA 0
scalar FogSequentialForward.fog[92].server[0] droppedJobsTotal 0
scalar FogSequentialForward.fog[93].dispatcher localJobs 3614
scalar FogSequentialForward.fog[93].dispatcher internalJobs 3624
scalar FogSequentialForward.fog[93].dispatcher externalJobs 272
scalar FogSequentialForward.fog[93].dispatcher remoteJobs 282
scalar FogSequentialForward.fog[93].dispatcher probeQueries 0
scalar FogSequentialForward.fog[93].dispatcher probeAnswers 0
scalar FogSequentialForward.fog[93].dispatcher droppedJobsSLA 0
scalar FogSequentialForward.fog[93].dispatcher jobs_class_1 3896
scalar FogSequentialForward.fog[93].dispatcher remoteJobs_class_1 282
scalar FogSequentialForward.fog[93].dispatcher localJobs_class_1 3614
scalar FogSequentialForward.fog[93].server[0] rho 0.55879443883896
scalar FogSequentialForward.fog[93].server[0] congestionRatio 0
scalar FogSequentialForward.fog[93].server[0] totalJobs 3614
scalar FogSequentialForward.fog[93].server[0] droppedJobsQueue 0
scalar FogSequentialForward.fog[93].server[0] droppedJobsTimout 0
scalar FogSequentialForward.fog[93].server[0] droppedJobsSLA 0
scalar FogSequentialForward.fog[93].server[0] droppedJobsTotal 0
scalar FogSequentialForward.fog[94].dispatcher localJobs 3603
scalar FogSequentialForward.fog[94].dispatcher internalJobs 3597
scalar FogSequentialForward.fog[94].dispatcher externalJobs 265
scalar FogSequentialForward.fog[94].dispatcher remoteJobs 259
scalar FogSequentialForward.fog[94].dispatcher probeQueries 0
scalar FogSequentialForward.fog[94].dispatcher probeAnswers 0
scalar FogSequentialForward.fog[94].dispatcher droppedJobsSLA 0
scalar FogSequentialForward.fog[94].dispatcher jobs_class_1 3862
scalar FogSequentialForward.fog[94].dispatcher remoteJobs_class_1 259
scalar FogSequentialForward.fog[94].dispatcher localJobs_class_1 3603
scalar FogSequentialForward.fog[94].server[0] rho 0.5568522810936
scalar FogSequentialForward.fog[94].server[0] congestionRatio 0
scalar FogSequentialForward.fog[94].server[0] totalJobs 3603
scalar FogSequentialForward.fog[94].server[0] droppedJobsQueue 0
scalar FogSequentialForward.fog[94].server[0] droppedJobsTimout 0
scalar FogSequentialForward.fog[94].server[0] droppedJobsSLA 0
scalar FogSequentialForward.fog[94].server[0] droppedJobsTotal 0
scalar FogSequentialForward.fog[95].dispatcher localJobs 3679
scalar FogSequentialForward.fog[95].dispatcher internalJobs 3690
scalar FogSequentialForward.fog[95].dispatcher externalJobs 269
scalar FogSequentialForward.fog[95].dispatcher remoteJobs 280
scalar FogSequentialForward.fog[95].dispatcher probeQueries 0
scalar FogSequentialForward.fog[95].dispatcher probeAnswers 0
scalar FogSequentialForward.fog[95].dispatcher droppedJobsSLA 0
scalar FogSequentialForward.fog[95].dispatcher jobs_class_1 3959
scalar FogSequentialForward.fog[95].dispatcher remoteJobs_class_1 280
scalar FogSequentialForward.fog[95].dispatcher localJobs_class_1 3679
scalar FogSequentialForward.fog[95].server[0] rho 0.56847333908081
scalar FogSequentialForward.fog[95].server[0] congestionRatio 0
scalar FogSequentialForward.fog[95].server[0] totalJobs 3679
scalar FogSequentialForward.fog[95].server[0] droppedJobsQueue 0
scalar FogSequentialForward.fog[95].server[0] droppedJobsTimout 0
scalar FogSequentialForward.fog[95].server[0] droppedJobsSLA 0
scalar FogSequentialForward.fog[95].server[0] droppedJobsTotal 0
scalar FogSequentialForward.fog[96].dispatcher localJobs 3660
scalar FogSequentialForward.fog[96].dispatcher internalJobs 3656
scalar FogSequentialForward.fog[96].dispatcher externalJobs 296
scalar FogSequentialForward.fog[96].dispatcher remoteJobs 292
scalar FogSequentialForward.fog[96].dispatcher probeQueries 0
scalar FogSequentialForward.fog[96].dispatcher probeAnswers 0
scalar FogSequentialForward.fog[96].dispatcher droppedJobsSLA 0
scalar FogSequentialForward.fog[96].dispatcher jobs_class_1 3952
scalar FogSequentialForward.fog[96].dispatcher remoteJobs_class_1 292
scalar FogSequentialForward.fog[96].dispatcher localJobs_class_1 3660
scalar FogSequentialForward.fog[96].server[0] rho 0.56592059135437
scalar FogSequentialForward.fog[96].server[0] congestionRatio 0
scalar FogSequentialForward.fog[96].server[0] totalJobs 3660
scalar FogSequentialForward.fog[96].server[0] droppedJobsQueue 0
scalar FogSequentialForward.fog[96].server[0] droppedJobsTimout 0
scalar FogSequentialForward.fog[96].server[0] droppedJobsSLA 0
scalar FogSequentialForward.fog[96].server[0] droppedJobsTotal 0
scalar FogSequentialForward.fog[97].dispatcher localJobs 3685
scalar FogSequentialForward.fog[97].dispatcher internalJobs 3672
scalar FogSequentialForward.fog[97].dispatcher externalJobs 303
scalar FogSequentialForward.fog[97].dispatcher remoteJobs 290
scalar FogSequentialForward.fog[97].dispatcher probeQueries 0
scalar FogSequentialForward.fog[97].dispatcher probeAnswers 0
scalar FogSequentialForward.fog[97].dispatcher droppedJobsSLA 0
scalar FogSequentialForward.fog[97].dispatcher jobs_class_1 3975
scalar FogSequentialForward.fog[97].dispatcher remoteJobs_class_1 290
scalar FogSequentialForward.fog[97].dispatcher localJobs_class_1 3685
scalar FogSequentialForward.fog[97].server[0] rho 0.56979376077652
scalar FogSequentialForward.fog[97].server[0] congestionRatio 0
scalar FogSequentialForward.fog[97].server[0] totalJobs 3685
scalar FogSequentialForward.fog[97].server[0] droppedJobsQueue 0
scalar FogSequentialForward.fog[97].server[0] droppedJobsTimout 0
scalar FogSequentialForward.fog[97].server[0] droppedJobsSLA 0
scalar FogSequentialForward.fog[97].server[0] droppedJobsTotal 0
scalar FogSequentialForward.fog[98].dispatcher localJobs 3674
scalar FogSequentialForward.fog[98].dispatcher internalJobs 3662
scalar FogSequentialForward.fog[98].dispatcher externalJobs 314
scalar FogSequentialForward.fog[98].dispatcher remoteJobs 302
scalar FogSequentialForward.fog[98].dispatcher probeQueries 0
scalar FogSequentialForward.fog[98].dispatcher probeAnswers 0
scalar FogSequentialForward.fog[98].dispatcher droppedJobsSLA 0
scalar FogSequentialForward.fog[98].dispatcher jobs_class_1 3976
scalar FogSequentialForward.fog[98].dispatcher remoteJobs_class_1 302
scalar FogSequentialForward.fog[98].dispatcher localJobs_class_1 3674
scalar FogSequentialForward.fog[98].server[0] rho 0.56786996126175
scalar FogSequentialForward.fog[98].server[0] congestionRatio 0
scalar FogSequentialForward.fog[98].server[0] totalJobs 3674
scalar FogSequentialForward.fog[98].server[0] droppedJobsQueue 0
scalar FogSequentialForward.fog[98].server[0] droppedJobsTimout 0
scalar FogSequentialForward.fog[98].server[0] droppedJobsSLA 0
scalar FogSequentialForward.fog[98].server[0] droppedJobsTotal 0
scalar FogSequentialForward.fog[99].dispatcher localJobs 3574
scalar FogSequentialForward.fog[99].dispatcher internalJobs 3590
scalar FogSequentialForward.fog[99].dispatcher externalJobs 264
scalar FogSequentialForward.fog[99].dispatcher remoteJobs 280
scalar FogSequentialForward.fog[99].dispatcher probeQueries 0
scalar FogSequentialForward.fog[99].dispatcher probeAnswers 0
scalar FogSequentialForward.fog[99].dispatcher droppedJobsSLA 0
scalar FogSequentialForward.fog[99].dispatcher jobs_class_1 3854
scalar FogSequentialForward.fog[99].dispatcher remoteJobs_class_1 280
scalar FogSequentialForward.fog[99].dispatcher localJobs_class_1 3574
scalar FogSequentialForward.fog[99].server[0] rho 0.55256932973862
scalar FogSequentialForward.fog[99].server[0] congestionRatio 0
scalar FogSequentialForward.fog[99].server[0] totalJobs 3574
scalar FogSequentialForward.fog[99].server[0] droppedJobsQueue 0
scalar FogSequentialForward.fog[99].server[0] droppedJobsTimout 0
scalar FogSequentialForward.fog[99].server[0] droppedJobsSLA 0
scalar FogSequentialForward.fog[99].server[0] droppedJobsTotal 0
scalar FogSequentialForward.sink avg_responseTime_1 2.3709591798091
scalar FogSequentialForward.sink p90_responseTime_1 1.514938429378
scalar FogSequentialForward.sink med_responseTime_1 1.514938429378
scalar FogSequentialForward.sink avg_delayTime_1 0
scalar FogSequentialForward.sink p90_delayTime_1 0
scalar FogSequentialForward.sink med_delayTime_1 0
scalar FogSequentialForward.sink avg_queuingTime_1 0.69965782597733
scalar FogSequentialForward.sink p90_queuingTime_1 0
scalar FogSequentialForward.sink med_queuingTime_1 0
scalar FogSequentialForward.sink avg_serviceTime_1 1.6699968873759
scalar FogSequentialForward.sink p90_serviceTime_1 1.51023952
scalar FogSequentialForward.sink med_serviceTime_1 1.51023952
scalar FogSequentialForward.sink avg_balancerTime_1 0.0013044664559031
scalar FogSequentialForward.sink p90_balancerTime_1 0
scalar FogSequentialForward.sink med_balancerTime_1 0
scalar FogSequentialForward.sink avg_balancerCount_1 1.0781117638265
scalar FogSequentialForward.sink p90_balancerCount_1 1
scalar FogSequentialForward.sink med_balancerCount_1 1

