version 2
run Fog-mul_001-rho_08-thr_15-4-20190713-11:18:03-48013
attr configname Fog-mul_001-rho_08-thr_15
attr datetime 20190713-11:18:03
attr experiment Fog-mul_001-rho_08-thr_15
attr inifile FogSequentialForward.ini
attr iterationvars ""
attr iterationvarsf ""
attr measurement ""
attr network FogSequentialForward
attr processid 48013
attr repetition 4
attr replication #4
attr resultdir results
attr runnumber 4
attr seedset 4
param FogSequentialForward.proctimeMul 0.01
param FogSequentialForward.rho 0.8
param FogSequentialForward.fog[*].dispatcher.thr 15
param FogSequentialForward.nSources 100
param FogSequentialForward.rho 0.9
param FogSequentialForward.proctimeMul 1.0
param FogSequentialForward.source[*].appId 1
param FogSequentialForward.source[*].realTime true
param FogSequentialForward.source[*].multiHop true
param FogSequentialForward.fog[*].nServers 1
param FogSequentialForward.fog[*].dispatcher.fanOut 1
param FogSequentialForward.fog[*].server[*].timeSlice -1s
param FogSequentialForward.fog[*].server[*].timeout -1s
param FogSequentialForward.fog[*].server[*].capacity 20
param FogSequentialForward.fog[*].server[*].fifo true
param FogSequentialForward.fog[*].server[*].maxServiceTime -1s
param FogSequentialForward.fog[*].dispatcher.thr 1

scalar FogSequentialForward.fog[0].dispatcher localJobs 1400143
scalar FogSequentialForward.fog[0].dispatcher internalJobs 1442763
scalar FogSequentialForward.fog[0].dispatcher externalJobs 3496370
scalar FogSequentialForward.fog[0].dispatcher remoteJobs 3496428
scalar FogSequentialForward.fog[0].dispatcher probeQueries 0
scalar FogSequentialForward.fog[0].dispatcher probeAnswers 0
scalar FogSequentialForward.fog[0].dispatcher droppedJobsSLA 42562
scalar FogSequentialForward.fog[0].dispatcher jobs_class_1 4939133
scalar FogSequentialForward.fog[0].dispatcher remoteJobs_class_1 3496428
scalar FogSequentialForward.fog[0].dispatcher localJobs_class_1 1400143
scalar FogSequentialForward.fog[0].dispatcher droppedJobsSLA_class_1 42562
scalar FogSequentialForward.fog[0].server[0] rho 1
scalar FogSequentialForward.fog[0].server[0] congestionRatio 0
scalar FogSequentialForward.fog[0].server[0] totalJobs 1400143
scalar FogSequentialForward.fog[0].server[0] droppedJobsQueue 52205
scalar FogSequentialForward.fog[0].server[0] droppedJobsTimout 0
scalar FogSequentialForward.fog[0].server[0] droppedJobsSLA 933884
scalar FogSequentialForward.fog[0].server[0] droppedJobsTotal 986089
scalar FogSequentialForward.fog[1].dispatcher localJobs 1400275
scalar FogSequentialForward.fog[1].dispatcher internalJobs 1443662
scalar FogSequentialForward.fog[1].dispatcher externalJobs 3496864
scalar FogSequentialForward.fog[1].dispatcher remoteJobs 3497833
scalar FogSequentialForward.fog[1].dispatcher probeQueries 0
scalar FogSequentialForward.fog[1].dispatcher probeAnswers 0
scalar FogSequentialForward.fog[1].dispatcher droppedJobsSLA 42418
scalar FogSequentialForward.fog[1].dispatcher jobs_class_1 4940526
scalar FogSequentialForward.fog[1].dispatcher remoteJobs_class_1 3497833
scalar FogSequentialForward.fog[1].dispatcher localJobs_class_1 1400275
scalar FogSequentialForward.fog[1].dispatcher droppedJobsSLA_class_1 42418
scalar FogSequentialForward.fog[1].server[0] rho 1
scalar FogSequentialForward.fog[1].server[0] congestionRatio 0
scalar FogSequentialForward.fog[1].server[0] totalJobs 1400275
scalar FogSequentialForward.fog[1].server[0] droppedJobsQueue 52320
scalar FogSequentialForward.fog[1].server[0] droppedJobsTimout 0
scalar FogSequentialForward.fog[1].server[0] droppedJobsSLA 934765
scalar FogSequentialForward.fog[1].server[0] droppedJobsTotal 987085
scalar FogSequentialForward.fog[2].dispatcher localJobs 1400019
scalar FogSequentialForward.fog[2].dispatcher internalJobs 1442839
scalar FogSequentialForward.fog[2].dispatcher externalJobs 3496250
scalar FogSequentialForward.fog[2].dispatcher remoteJobs 3496348
scalar FogSequentialForward.fog[2].dispatcher probeQueries 0
scalar FogSequentialForward.fog[2].dispatcher probeAnswers 0
scalar FogSequentialForward.fog[2].dispatcher droppedJobsSLA 42722
scalar FogSequentialForward.fog[2].dispatcher jobs_class_1 4939089
scalar FogSequentialForward.fog[2].dispatcher remoteJobs_class_1 3496348
scalar FogSequentialForward.fog[2].dispatcher localJobs_class_1 1400019
scalar FogSequentialForward.fog[2].dispatcher droppedJobsSLA_class_1 42722
scalar FogSequentialForward.fog[2].server[0] rho 1
scalar FogSequentialForward.fog[2].server[0] congestionRatio 0
scalar FogSequentialForward.fog[2].server[0] totalJobs 1400019
scalar FogSequentialForward.fog[2].server[0] droppedJobsQueue 52524
scalar FogSequentialForward.fog[2].server[0] droppedJobsTimout 0
scalar FogSequentialForward.fog[2].server[0] droppedJobsSLA 934666
scalar FogSequentialForward.fog[2].server[0] droppedJobsTotal 987190
scalar FogSequentialForward.fog[3].dispatcher localJobs 1400604
scalar FogSequentialForward.fog[3].dispatcher internalJobs 1442727
scalar FogSequentialForward.fog[3].dispatcher externalJobs 3498621
scalar FogSequentialForward.fog[3].dispatcher remoteJobs 3497797
scalar FogSequentialForward.fog[3].dispatcher probeQueries 0
scalar FogSequentialForward.fog[3].dispatcher probeAnswers 0
scalar FogSequentialForward.fog[3].dispatcher droppedJobsSLA 42947
scalar FogSequentialForward.fog[3].dispatcher jobs_class_1 4941348
scalar FogSequentialForward.fog[3].dispatcher remoteJobs_class_1 3497797
scalar FogSequentialForward.fog[3].dispatcher localJobs_class_1 1400604
scalar FogSequentialForward.fog[3].dispatcher droppedJobsSLA_class_1 42947
scalar FogSequentialForward.fog[3].server[0] rho 0.99999982118607
scalar FogSequentialForward.fog[3].server[0] congestionRatio 0
scalar FogSequentialForward.fog[3].server[0] totalJobs 1400604
scalar FogSequentialForward.fog[3].server[0] droppedJobsQueue 52252
scalar FogSequentialForward.fog[3].server[0] droppedJobsTimout 0
scalar FogSequentialForward.fog[3].server[0] droppedJobsSLA 934655
scalar FogSequentialForward.fog[3].server[0] droppedJobsTotal 986907
scalar FogSequentialForward.fog[4].dispatcher localJobs 1399832
scalar FogSequentialForward.fog[4].dispatcher internalJobs 1442700
scalar FogSequentialForward.fog[4].dispatcher externalJobs 3494405
scalar FogSequentialForward.fog[4].dispatcher remoteJobs 3494391
scalar FogSequentialForward.fog[4].dispatcher probeQueries 0
scalar FogSequentialForward.fog[4].dispatcher probeAnswers 0
scalar FogSequentialForward.fog[4].dispatcher droppedJobsSLA 42882
scalar FogSequentialForward.fog[4].dispatcher jobs_class_1 4937105
scalar FogSequentialForward.fog[4].dispatcher remoteJobs_class_1 3494391
scalar FogSequentialForward.fog[4].dispatcher localJobs_class_1 1399832
scalar FogSequentialForward.fog[4].dispatcher droppedJobsSLA_class_1 42882
scalar FogSequentialForward.fog[4].server[0] rho 1
scalar FogSequentialForward.fog[4].server[0] congestionRatio 0
scalar FogSequentialForward.fog[4].server[0] totalJobs 1399832
scalar FogSequentialForward.fog[4].server[0] droppedJobsQueue 52672
scalar FogSequentialForward.fog[4].server[0] droppedJobsTimout 0
scalar FogSequentialForward.fog[4].server[0] droppedJobsSLA 934041
scalar FogSequentialForward.fog[4].server[0] droppedJobsTotal 986713
scalar FogSequentialForward.fog[5].dispatcher localJobs 1399414
scalar FogSequentialForward.fog[5].dispatcher internalJobs 1441348
scalar FogSequentialForward.fog[5].dispatcher externalJobs 3498469
scalar FogSequentialForward.fog[5].dispatcher remoteJobs 3497635
scalar FogSequentialForward.fog[5].dispatcher probeQueries 0
scalar FogSequentialForward.fog[5].dispatcher probeAnswers 0
scalar FogSequentialForward.fog[5].dispatcher droppedJobsSLA 42768
scalar FogSequentialForward.fog[5].dispatcher jobs_class_1 4939817
scalar FogSequentialForward.fog[5].dispatcher remoteJobs_class_1 3497635
scalar FogSequentialForward.fog[5].dispatcher localJobs_class_1 1399414
scalar FogSequentialForward.fog[5].dispatcher droppedJobsSLA_class_1 42768
scalar FogSequentialForward.fog[5].server[0] rho 0.99999994039536
scalar FogSequentialForward.fog[5].server[0] congestionRatio 0
scalar FogSequentialForward.fog[5].server[0] totalJobs 1399414
scalar FogSequentialForward.fog[5].server[0] droppedJobsQueue 52398
scalar FogSequentialForward.fog[5].server[0] droppedJobsTimout 0
scalar FogSequentialForward.fog[5].server[0] droppedJobsSLA 933929
scalar FogSequentialForward.fog[5].server[0] droppedJobsTotal 986327
scalar FogSequentialForward.fog[6].dispatcher localJobs 1400512
scalar FogSequentialForward.fog[6].dispatcher internalJobs 1442287
scalar FogSequentialForward.fog[6].dispatcher externalJobs 3495038
scalar FogSequentialForward.fog[6].dispatcher remoteJobs 3494180
scalar FogSequentialForward.fog[6].dispatcher probeQueries 0
scalar FogSequentialForward.fog[6].dispatcher probeAnswers 0
scalar FogSequentialForward.fog[6].dispatcher droppedJobsSLA 42633
scalar FogSequentialForward.fog[6].dispatcher jobs_class_1 4937325
scalar FogSequentialForward.fog[6].dispatcher remoteJobs_class_1 3494180
scalar FogSequentialForward.fog[6].dispatcher localJobs_class_1 1400512
scalar FogSequentialForward.fog[6].dispatcher droppedJobsSLA_class_1 42633
scalar FogSequentialForward.fog[6].server[0] rho 1
scalar FogSequentialForward.fog[6].server[0] congestionRatio 0
scalar FogSequentialForward.fog[6].server[0] totalJobs 1400512
scalar FogSequentialForward.fog[6].server[0] droppedJobsQueue 52537
scalar FogSequentialForward.fog[6].server[0] droppedJobsTimout 0
scalar FogSequentialForward.fog[6].server[0] droppedJobsSLA 934707
scalar FogSequentialForward.fog[6].server[0] droppedJobsTotal 987244
scalar FogSequentialForward.fog[7].dispatcher localJobs 1400575
scalar FogSequentialForward.fog[7].dispatcher internalJobs 1443582
scalar FogSequentialForward.fog[7].dispatcher externalJobs 3494674
scalar FogSequentialForward.fog[7].dispatcher remoteJobs 3495160
scalar FogSequentialForward.fog[7].dispatcher probeQueries 0
scalar FogSequentialForward.fog[7].dispatcher probeAnswers 0
scalar FogSequentialForward.fog[7].dispatcher droppedJobsSLA 42521
scalar FogSequentialForward.fog[7].dispatcher jobs_class_1 4938256
scalar FogSequentialForward.fog[7].dispatcher remoteJobs_class_1 3495160
scalar FogSequentialForward.fog[7].dispatcher localJobs_class_1 1400575
scalar FogSequentialForward.fog[7].dispatcher droppedJobsSLA_class_1 42521
scalar FogSequentialForward.fog[7].server[0] rho 1
scalar FogSequentialForward.fog[7].server[0] congestionRatio 0
scalar FogSequentialForward.fog[7].server[0] totalJobs 1400575
scalar FogSequentialForward.fog[7].server[0] droppedJobsQueue 52460
scalar FogSequentialForward.fog[7].server[0] droppedJobsTimout 0
scalar FogSequentialForward.fog[7].server[0] droppedJobsSLA 934502
scalar FogSequentialForward.fog[7].server[0] droppedJobsTotal 986962
scalar FogSequentialForward.fog[8].dispatcher localJobs 1399958
scalar FogSequentialForward.fog[8].dispatcher internalJobs 1443440
scalar FogSequentialForward.fog[8].dispatcher externalJobs 3497219
scalar FogSequentialForward.fog[8].dispatcher remoteJobs 3498059
scalar FogSequentialForward.fog[8].dispatcher probeQueries 0
scalar FogSequentialForward.fog[8].dispatcher probeAnswers 0
scalar FogSequentialForward.fog[8].dispatcher droppedJobsSLA 42642
scalar FogSequentialForward.fog[8].dispatcher jobs_class_1 4940659
scalar FogSequentialForward.fog[8].dispatcher remoteJobs_class_1 3498059
scalar FogSequentialForward.fog[8].dispatcher localJobs_class_1 1399958
scalar FogSequentialForward.fog[8].dispatcher droppedJobsSLA_class_1 42642
scalar FogSequentialForward.fog[8].server[0] rho 0.99999868869781
scalar FogSequentialForward.fog[8].server[0] congestionRatio 0
scalar FogSequentialForward.fog[8].server[0] totalJobs 1399958
scalar FogSequentialForward.fog[8].server[0] droppedJobsQueue 52216
scalar FogSequentialForward.fog[8].server[0] droppedJobsTimout 0
scalar FogSequentialForward.fog[8].server[0] droppedJobsSLA 934800
scalar FogSequentialForward.fog[8].server[0] droppedJobsTotal 987016
scalar FogSequentialForward.fog[9].dispatcher localJobs 1400508
scalar FogSequentialForward.fog[9].dispatcher internalJobs 1442753
scalar FogSequentialForward.fog[9].dispatcher externalJobs 3496843
scalar FogSequentialForward.fog[9].dispatcher remoteJobs 3496581
scalar FogSequentialForward.fog[9].dispatcher probeQueries 0
scalar FogSequentialForward.fog[9].dispatcher probeAnswers 0
scalar FogSequentialForward.fog[9].dispatcher droppedJobsSLA 42507
scalar FogSequentialForward.fog[9].dispatcher jobs_class_1 4939596
scalar FogSequentialForward.fog[9].dispatcher remoteJobs_class_1 3496581
scalar FogSequentialForward.fog[9].dispatcher localJobs_class_1 1400508
scalar FogSequentialForward.fog[9].dispatcher droppedJobsSLA_class_1 42507
scalar FogSequentialForward.fog[9].server[0] rho 1
scalar FogSequentialForward.fog[9].server[0] congestionRatio 0
scalar FogSequentialForward.fog[9].server[0] totalJobs 1400508
scalar FogSequentialForward.fog[9].server[0] droppedJobsQueue 52465
scalar FogSequentialForward.fog[9].server[0] droppedJobsTimout 0
scalar FogSequentialForward.fog[9].server[0] droppedJobsSLA 934919
scalar FogSequentialForward.fog[9].server[0] droppedJobsTotal 987384
scalar FogSequentialForward.fog[10].dispatcher localJobs 1400496
scalar FogSequentialForward.fog[10].dispatcher internalJobs 1442949
scalar FogSequentialForward.fog[10].dispatcher externalJobs 3498101
scalar FogSequentialForward.fog[10].dispatcher remoteJobs 3497471
scalar FogSequentialForward.fog[10].dispatcher probeQueries 0
scalar FogSequentialForward.fog[10].dispatcher probeAnswers 0
scalar FogSequentialForward.fog[10].dispatcher droppedJobsSLA 43083
scalar FogSequentialForward.fog[10].dispatcher jobs_class_1 4941050
scalar FogSequentialForward.fog[10].dispatcher remoteJobs_class_1 3497471
scalar FogSequentialForward.fog[10].dispatcher localJobs_class_1 1400496
scalar FogSequentialForward.fog[10].dispatcher droppedJobsSLA_class_1 43083
scalar FogSequentialForward.fog[10].server[0] rho 1
scalar FogSequentialForward.fog[10].server[0] congestionRatio 0
scalar FogSequentialForward.fog[10].server[0] totalJobs 1400496
scalar FogSequentialForward.fog[10].server[0] droppedJobsQueue 52378
scalar FogSequentialForward.fog[10].server[0] droppedJobsTimout 0
scalar FogSequentialForward.fog[10].server[0] droppedJobsSLA 934623
scalar FogSequentialForward.fog[10].server[0] droppedJobsTotal 987001
scalar FogSequentialForward.fog[11].dispatcher localJobs 1399935
scalar FogSequentialForward.fog[11].dispatcher internalJobs 1444721
scalar FogSequentialForward.fog[11].dispatcher externalJobs 3496854
scalar FogSequentialForward.fog[11].dispatcher remoteJobs 3499169
scalar FogSequentialForward.fog[11].dispatcher probeQueries 0
scalar FogSequentialForward.fog[11].dispatcher probeAnswers 0
scalar FogSequentialForward.fog[11].dispatcher droppedJobsSLA 42471
scalar FogSequentialForward.fog[11].dispatcher jobs_class_1 4941575
scalar FogSequentialForward.fog[11].dispatcher remoteJobs_class_1 3499169
scalar FogSequentialForward.fog[11].dispatcher localJobs_class_1 1399935
scalar FogSequentialForward.fog[11].dispatcher droppedJobsSLA_class_1 42471
scalar FogSequentialForward.fog[11].server[0] rho 1
scalar FogSequentialForward.fog[11].server[0] congestionRatio 0
scalar FogSequentialForward.fog[11].server[0] totalJobs 1399935
scalar FogSequentialForward.fog[11].server[0] droppedJobsQueue 52362
scalar FogSequentialForward.fog[11].server[0] droppedJobsTimout 0
scalar FogSequentialForward.fog[11].server[0] droppedJobsSLA 935013
scalar FogSequentialForward.fog[11].server[0] droppedJobsTotal 987375
scalar FogSequentialForward.fog[12].dispatcher localJobs 1399986
scalar FogSequentialForward.fog[12].dispatcher internalJobs 1442098
scalar FogSequentialForward.fog[12].dispatcher externalJobs 3498664
scalar FogSequentialForward.fog[12].dispatcher remoteJobs 3498073
scalar FogSequentialForward.fog[12].dispatcher probeQueries 0
scalar FogSequentialForward.fog[12].dispatcher probeAnswers 0
scalar FogSequentialForward.fog[12].dispatcher droppedJobsSLA 42703
scalar FogSequentialForward.fog[12].dispatcher jobs_class_1 4940762
scalar FogSequentialForward.fog[12].dispatcher remoteJobs_class_1 3498073
scalar FogSequentialForward.fog[12].dispatcher localJobs_class_1 1399986
scalar FogSequentialForward.fog[12].dispatcher droppedJobsSLA_class_1 42703
scalar FogSequentialForward.fog[12].server[0] rho 0.99999934434891
scalar FogSequentialForward.fog[12].server[0] congestionRatio 0
scalar FogSequentialForward.fog[12].server[0] totalJobs 1399986
scalar FogSequentialForward.fog[12].server[0] droppedJobsQueue 52019
scalar FogSequentialForward.fog[12].server[0] droppedJobsTimout 0
scalar FogSequentialForward.fog[12].server[0] droppedJobsSLA 934580
scalar FogSequentialForward.fog[12].server[0] droppedJobsTotal 986599
scalar FogSequentialForward.fog[13].dispatcher localJobs 1400896
scalar FogSequentialForward.fog[13].dispatcher internalJobs 1442694
scalar FogSequentialForward.fog[13].dispatcher externalJobs 3496809
scalar FogSequentialForward.fog[13].dispatcher remoteJobs 3495530
scalar FogSequentialForward.fog[13].dispatcher probeQueries 0
scalar FogSequentialForward.fog[13].dispatcher probeAnswers 0
scalar FogSequentialForward.fog[13].dispatcher droppedJobsSLA 43077
scalar FogSequentialForward.fog[13].dispatcher jobs_class_1 4939503
scalar FogSequentialForward.fog[13].dispatcher remoteJobs_class_1 3495530
scalar FogSequentialForward.fog[13].dispatcher localJobs_class_1 1400896
scalar FogSequentialForward.fog[13].dispatcher droppedJobsSLA_class_1 43077
scalar FogSequentialForward.fog[13].server[0] rho 1
scalar FogSequentialForward.fog[13].server[0] congestionRatio 0
scalar FogSequentialForward.fog[13].server[0] totalJobs 1400896
scalar FogSequentialForward.fog[13].server[0] droppedJobsQueue 52459
scalar FogSequentialForward.fog[13].server[0] droppedJobsTimout 0
scalar FogSequentialForward.fog[13].server[0] droppedJobsSLA 934370
scalar FogSequentialForward.fog[13].server[0] droppedJobsTotal 986829
scalar FogSequentialForward.fog[14].dispatcher localJobs 1399080
scalar FogSequentialForward.fog[14].dispatcher internalJobs 1441925
scalar FogSequentialForward.fog[14].dispatcher externalJobs 3493930
scalar FogSequentialForward.fog[14].dispatcher remoteJobs 3494136
scalar FogSequentialForward.fog[14].dispatcher probeQueries 0
scalar FogSequentialForward.fog[14].dispatcher probeAnswers 0
scalar FogSequentialForward.fog[14].dispatcher droppedJobsSLA 42639
scalar FogSequentialForward.fog[14].dispatcher jobs_class_1 4935855
scalar FogSequentialForward.fog[14].dispatcher remoteJobs_class_1 3494136
scalar FogSequentialForward.fog[14].dispatcher localJobs_class_1 1399080
scalar FogSequentialForward.fog[14].dispatcher droppedJobsSLA_class_1 42639
scalar FogSequentialForward.fog[14].server[0] rho 1
scalar FogSequentialForward.fog[14].server[0] congestionRatio 0
scalar FogSequentialForward.fog[14].server[0] totalJobs 1399080
scalar FogSequentialForward.fog[14].server[0] droppedJobsQueue 51938
scalar FogSequentialForward.fog[14].server[0] droppedJobsTimout 0
scalar FogSequentialForward.fog[14].server[0] droppedJobsSLA 933421
scalar FogSequentialForward.fog[14].server[0] droppedJobsTotal 985359
scalar FogSequentialForward.fog[15].dispatcher localJobs 1400059
scalar FogSequentialForward.fog[15].dispatcher internalJobs 1443226
scalar FogSequentialForward.fog[15].dispatcher externalJobs 3499408
scalar FogSequentialForward.fog[15].dispatcher remoteJobs 3500350
scalar FogSequentialForward.fog[15].dispatcher probeQueries 0
scalar FogSequentialForward.fog[15].dispatcher probeAnswers 0
scalar FogSequentialForward.fog[15].dispatcher droppedJobsSLA 42225
scalar FogSequentialForward.fog[15].dispatcher jobs_class_1 4942634
scalar FogSequentialForward.fog[15].dispatcher remoteJobs_class_1 3500350
scalar FogSequentialForward.fog[15].dispatcher localJobs_class_1 1400059
scalar FogSequentialForward.fog[15].dispatcher droppedJobsSLA_class_1 42225
scalar FogSequentialForward.fog[15].server[0] rho 1
scalar FogSequentialForward.fog[15].server[0] congestionRatio 0
scalar FogSequentialForward.fog[15].server[0] totalJobs 1400059
scalar FogSequentialForward.fog[15].server[0] droppedJobsQueue 52377
scalar FogSequentialForward.fog[15].server[0] droppedJobsTimout 0
scalar FogSequentialForward.fog[15].server[0] droppedJobsSLA 933997
scalar FogSequentialForward.fog[15].server[0] droppedJobsTotal 986374
scalar FogSequentialForward.fog[16].dispatcher localJobs 1400358
scalar FogSequentialForward.fog[16].dispatcher internalJobs 1441879
scalar FogSequentialForward.fog[16].dispatcher externalJobs 3498629
scalar FogSequentialForward.fog[16].dispatcher remoteJobs 3497362
scalar FogSequentialForward.fog[16].dispatcher probeQueries 0
scalar FogSequentialForward.fog[16].dispatcher probeAnswers 0
scalar FogSequentialForward.fog[16].dispatcher droppedJobsSLA 42788
scalar FogSequentialForward.fog[16].dispatcher jobs_class_1 4940508
scalar FogSequentialForward.fog[16].dispatcher remoteJobs_class_1 3497362
scalar FogSequentialForward.fog[16].dispatcher localJobs_class_1 1400358
scalar FogSequentialForward.fog[16].dispatcher droppedJobsSLA_class_1 42788
scalar FogSequentialForward.fog[16].server[0] rho 1
scalar FogSequentialForward.fog[16].server[0] congestionRatio 0
scalar FogSequentialForward.fog[16].server[0] totalJobs 1400358
scalar FogSequentialForward.fog[16].server[0] droppedJobsQueue 52258
scalar FogSequentialForward.fog[16].server[0] droppedJobsTimout 0
scalar FogSequentialForward.fog[16].server[0] droppedJobsSLA 934750
scalar FogSequentialForward.fog[16].server[0] droppedJobsTotal 987008
scalar FogSequentialForward.fog[17].dispatcher localJobs 1400602
scalar FogSequentialForward.fog[17].dispatcher internalJobs 1443153
scalar FogSequentialForward.fog[17].dispatcher externalJobs 3498419
scalar FogSequentialForward.fog[17].dispatcher remoteJobs 3498191
scalar FogSequentialForward.fog[17].dispatcher probeQueries 0
scalar FogSequentialForward.fog[17].dispatcher probeAnswers 0
scalar FogSequentialForward.fog[17].dispatcher droppedJobsSLA 42779
scalar FogSequentialForward.fog[17].dispatcher jobs_class_1 4941572
scalar FogSequentialForward.fog[17].dispatcher remoteJobs_class_1 3498191
scalar FogSequentialForward.fog[17].dispatcher localJobs_class_1 1400602
scalar FogSequentialForward.fog[17].dispatcher droppedJobsSLA_class_1 42779
scalar FogSequentialForward.fog[17].server[0] rho 1
scalar FogSequentialForward.fog[17].server[0] congestionRatio 0
scalar FogSequentialForward.fog[17].server[0] totalJobs 1400602
scalar FogSequentialForward.fog[17].server[0] droppedJobsQueue 52266
scalar FogSequentialForward.fog[17].server[0] droppedJobsTimout 0
scalar FogSequentialForward.fog[17].server[0] droppedJobsSLA 934637
scalar FogSequentialForward.fog[17].server[0] droppedJobsTotal 986903
scalar FogSequentialForward.fog[18].dispatcher localJobs 1400586
scalar FogSequentialForward.fog[18].dispatcher internalJobs 1443057
scalar FogSequentialForward.fog[18].dispatcher externalJobs 3497605
scalar FogSequentialForward.fog[18].dispatcher remoteJobs 3497491
scalar FogSequentialForward.fog[18].dispatcher probeQueries 0
scalar FogSequentialForward.fog[18].dispatcher probeAnswers 0
scalar FogSequentialForward.fog[18].dispatcher droppedJobsSLA 42585
scalar FogSequentialForward.fog[18].dispatcher jobs_class_1 4940662
scalar FogSequentialForward.fog[18].dispatcher remoteJobs_class_1 3497491
scalar FogSequentialForward.fog[18].dispatcher localJobs_class_1 1400586
scalar FogSequentialForward.fog[18].dispatcher droppedJobsSLA_class_1 42585
scalar FogSequentialForward.fog[18].server[0] rho 1
scalar FogSequentialForward.fog[18].server[0] congestionRatio 0
scalar FogSequentialForward.fog[18].server[0] totalJobs 1400586
scalar FogSequentialForward.fog[18].server[0] droppedJobsQueue 52518
scalar FogSequentialForward.fog[18].server[0] droppedJobsTimout 0
scalar FogSequentialForward.fog[18].server[0] droppedJobsSLA 934509
scalar FogSequentialForward.fog[18].server[0] droppedJobsTotal 987027
scalar FogSequentialForward.fog[19].dispatcher localJobs 1400285
scalar FogSequentialForward.fog[19].dispatcher internalJobs 1444657
scalar FogSequentialForward.fog[19].dispatcher externalJobs 3498185
scalar FogSequentialForward.fog[19].dispatcher remoteJobs 3499536
scalar FogSequentialForward.fog[19].dispatcher probeQueries 0
scalar FogSequentialForward.fog[19].dispatcher probeAnswers 0
scalar FogSequentialForward.fog[19].dispatcher droppedJobsSLA 43021
scalar FogSequentialForward.fog[19].dispatcher jobs_class_1 4942842
scalar FogSequentialForward.fog[19].dispatcher remoteJobs_class_1 3499536
scalar FogSequentialForward.fog[19].dispatcher localJobs_class_1 1400285
scalar FogSequentialForward.fog[19].dispatcher droppedJobsSLA_class_1 43021
scalar FogSequentialForward.fog[19].server[0] rho 0.99999970197678
scalar FogSequentialForward.fog[19].server[0] congestionRatio 0
scalar FogSequentialForward.fog[19].server[0] totalJobs 1400285
scalar FogSequentialForward.fog[19].server[0] droppedJobsQueue 52308
scalar FogSequentialForward.fog[19].server[0] droppedJobsTimout 0
scalar FogSequentialForward.fog[19].server[0] droppedJobsSLA 934782
scalar FogSequentialForward.fog[19].server[0] droppedJobsTotal 987090
scalar FogSequentialForward.fog[20].dispatcher localJobs 1399947
scalar FogSequentialForward.fog[20].dispatcher internalJobs 1441255
scalar FogSequentialForward.fog[20].dispatcher externalJobs 3498496
scalar FogSequentialForward.fog[20].dispatcher remoteJobs 3497203
scalar FogSequentialForward.fog[20].dispatcher probeQueries 0
scalar FogSequentialForward.fog[20].dispatcher probeAnswers 0
scalar FogSequentialForward.fog[20].dispatcher droppedJobsSLA 42601
scalar FogSequentialForward.fog[20].dispatcher jobs_class_1 4939751
scalar FogSequentialForward.fog[20].dispatcher remoteJobs_class_1 3497203
scalar FogSequentialForward.fog[20].dispatcher localJobs_class_1 1399947
scalar FogSequentialForward.fog[20].dispatcher droppedJobsSLA_class_1 42601
scalar FogSequentialForward.fog[20].server[0] rho 0.99999964237213
scalar FogSequentialForward.fog[20].server[0] congestionRatio 0
scalar FogSequentialForward.fog[20].server[0] totalJobs 1399947
scalar FogSequentialForward.fog[20].server[0] droppedJobsQueue 52184
scalar FogSequentialForward.fog[20].server[0] droppedJobsTimout 0
scalar FogSequentialForward.fog[20].server[0] droppedJobsSLA 934444
scalar FogSequentialForward.fog[20].server[0] droppedJobsTotal 986628
scalar FogSequentialForward.fog[21].dispatcher localJobs 1400708
scalar FogSequentialForward.fog[21].dispatcher internalJobs 1444010
scalar FogSequentialForward.fog[21].dispatcher externalJobs 3497961
scalar FogSequentialForward.fog[21].dispatcher remoteJobs 3498261
scalar FogSequentialForward.fog[21].dispatcher probeQueries 0
scalar FogSequentialForward.fog[21].dispatcher probeAnswers 0
scalar FogSequentialForward.fog[21].dispatcher droppedJobsSLA 43002
scalar FogSequentialForward.fog[21].dispatcher jobs_class_1 4941971
scalar FogSequentialForward.fog[21].dispatcher remoteJobs_class_1 3498261
scalar FogSequentialForward.fog[21].dispatcher localJobs_class_1 1400708
scalar FogSequentialForward.fog[21].dispatcher droppedJobsSLA_class_1 43002
scalar FogSequentialForward.fog[21].server[0] rho 1
scalar FogSequentialForward.fog[21].server[0] congestionRatio 0
scalar FogSequentialForward.fog[21].server[0] totalJobs 1400708
scalar FogSequentialForward.fog[21].server[0] droppedJobsQueue 52646
scalar FogSequentialForward.fog[21].server[0] droppedJobsTimout 0
scalar FogSequentialForward.fog[21].server[0] droppedJobsSLA 933986
scalar FogSequentialForward.fog[21].server[0] droppedJobsTotal 986632
scalar FogSequentialForward.fog[22].dispatcher localJobs 1400425
scalar FogSequentialForward.fog[22].dispatcher internalJobs 1442794
scalar FogSequentialForward.fog[22].dispatcher externalJobs 3499328
scalar FogSequentialForward.fog[22].dispatcher remoteJobs 3498959
scalar FogSequentialForward.fog[22].dispatcher probeQueries 0
scalar FogSequentialForward.fog[22].dispatcher probeAnswers 0
scalar FogSequentialForward.fog[22].dispatcher droppedJobsSLA 42738
scalar FogSequentialForward.fog[22].dispatcher jobs_class_1 4942122
scalar FogSequentialForward.fog[22].dispatcher remoteJobs_class_1 3498959
scalar FogSequentialForward.fog[22].dispatcher localJobs_class_1 1400425
scalar FogSequentialForward.fog[22].dispatcher droppedJobsSLA_class_1 42738
scalar FogSequentialForward.fog[22].server[0] rho 1
scalar FogSequentialForward.fog[22].server[0] congestionRatio 0
scalar FogSequentialForward.fog[22].server[0] totalJobs 1400425
scalar FogSequentialForward.fog[22].server[0] droppedJobsQueue 52445
scalar FogSequentialForward.fog[22].server[0] droppedJobsTimout 0
scalar FogSequentialForward.fog[22].server[0] droppedJobsSLA 934335
scalar FogSequentialForward.fog[22].server[0] droppedJobsTotal 986780
scalar FogSequentialForward.fog[23].dispatcher localJobs 1399920
scalar FogSequentialForward.fog[23].dispatcher internalJobs 1442738
scalar FogSequentialForward.fog[23].dispatcher externalJobs 3496558
scalar FogSequentialForward.fog[23].dispatcher remoteJobs 3496574
scalar FogSequentialForward.fog[23].dispatcher probeQueries 0
scalar FogSequentialForward.fog[23].dispatcher probeAnswers 0
scalar FogSequentialForward.fog[23].dispatcher droppedJobsSLA 42802
scalar FogSequentialForward.fog[23].dispatcher jobs_class_1 4939296
scalar FogSequentialForward.fog[23].dispatcher remoteJobs_class_1 3496574
scalar FogSequentialForward.fog[23].dispatcher localJobs_class_1 1399920
scalar FogSequentialForward.fog[23].dispatcher droppedJobsSLA_class_1 42802
scalar FogSequentialForward.fog[23].server[0] rho 1
scalar FogSequentialForward.fog[23].server[0] congestionRatio 0
scalar FogSequentialForward.fog[23].server[0] totalJobs 1399920
scalar FogSequentialForward.fog[23].server[0] droppedJobsQueue 52333
scalar FogSequentialForward.fog[23].server[0] droppedJobsTimout 0
scalar FogSequentialForward.fog[23].server[0] droppedJobsSLA 934171
scalar FogSequentialForward.fog[23].server[0] droppedJobsTotal 986504
scalar FogSequentialForward.fog[24].dispatcher localJobs 1400543
scalar FogSequentialForward.fog[24].dispatcher internalJobs 1442775
scalar FogSequentialForward.fog[24].dispatcher externalJobs 3496834
scalar FogSequentialForward.fog[24].dispatcher remoteJobs 3496538
scalar FogSequentialForward.fog[24].dispatcher probeQueries 0
scalar FogSequentialForward.fog[24].dispatcher probeAnswers 0
scalar FogSequentialForward.fog[24].dispatcher droppedJobsSLA 42528
scalar FogSequentialForward.fog[24].dispatcher jobs_class_1 4939609
scalar FogSequentialForward.fog[24].dispatcher remoteJobs_class_1 3496538
scalar FogSequentialForward.fog[24].dispatcher localJobs_class_1 1400543
scalar FogSequentialForward.fog[24].dispatcher droppedJobsSLA_class_1 42528
scalar FogSequentialForward.fog[24].server[0] rho 1
scalar FogSequentialForward.fog[24].server[0] congestionRatio 0
scalar FogSequentialForward.fog[24].server[0] totalJobs 1400543
scalar FogSequentialForward.fog[24].server[0] droppedJobsQueue 52174
scalar FogSequentialForward.fog[24].server[0] droppedJobsTimout 0
scalar FogSequentialForward.fog[24].server[0] droppedJobsSLA 934837
scalar FogSequentialForward.fog[24].server[0] droppedJobsTotal 987011
scalar FogSequentialForward.fog[25].dispatcher localJobs 1400540
scalar FogSequentialForward.fog[25].dispatcher internalJobs 1444560
scalar FogSequentialForward.fog[25].dispatcher externalJobs 3499459
scalar FogSequentialForward.fog[25].dispatcher remoteJobs 3500938
scalar FogSequentialForward.fog[25].dispatcher probeQueries 0
scalar FogSequentialForward.fog[25].dispatcher probeAnswers 0
scalar FogSequentialForward.fog[25].dispatcher droppedJobsSLA 42541
scalar FogSequentialForward.fog[25].dispatcher jobs_class_1 4944019
scalar FogSequentialForward.fog[25].dispatcher remoteJobs_class_1 3500938
scalar FogSequentialForward.fog[25].dispatcher localJobs_class_1 1400540
scalar FogSequentialForward.fog[25].dispatcher droppedJobsSLA_class_1 42541
scalar FogSequentialForward.fog[25].server[0] rho 1
scalar FogSequentialForward.fog[25].server[0] congestionRatio 0
scalar FogSequentialForward.fog[25].server[0] totalJobs 1400540
scalar FogSequentialForward.fog[25].server[0] droppedJobsQueue 52313
scalar FogSequentialForward.fog[25].server[0] droppedJobsTimout 0
scalar FogSequentialForward.fog[25].server[0] droppedJobsSLA 935667
scalar FogSequentialForward.fog[25].server[0] droppedJobsTotal 987980
scalar FogSequentialForward.fog[26].dispatcher localJobs 1399434
scalar FogSequentialForward.fog[26].dispatcher internalJobs 1443296
scalar FogSequentialForward.fog[26].dispatcher externalJobs 3492626
scalar FogSequentialForward.fog[26].dispatcher remoteJobs 3494046
scalar FogSequentialForward.fog[26].dispatcher probeQueries 0
scalar FogSequentialForward.fog[26].dispatcher probeAnswers 0
scalar FogSequentialForward.fog[26].dispatcher droppedJobsSLA 42442
scalar FogSequentialForward.fog[26].dispatcher jobs_class_1 4935922
scalar FogSequentialForward.fog[26].dispatcher remoteJobs_class_1 3494046
scalar FogSequentialForward.fog[26].dispatcher localJobs_class_1 1399434
scalar FogSequentialForward.fog[26].dispatcher droppedJobsSLA_class_1 42442
scalar FogSequentialForward.fog[26].server[0] rho 1
scalar FogSequentialForward.fog[26].server[0] congestionRatio 0
scalar FogSequentialForward.fog[26].server[0] totalJobs 1399434
scalar FogSequentialForward.fog[26].server[0] droppedJobsQueue 52034
scalar FogSequentialForward.fog[26].server[0] droppedJobsTimout 0
scalar FogSequentialForward.fog[26].server[0] droppedJobsSLA 934145
scalar FogSequentialForward.fog[26].server[0] droppedJobsTotal 986179
scalar FogSequentialForward.fog[27].dispatcher localJobs 1401134
scalar FogSequentialForward.fog[27].dispatcher internalJobs 1444268
scalar FogSequentialForward.fog[27].dispatcher externalJobs 3496048
scalar FogSequentialForward.fog[27].dispatcher remoteJobs 3496072
scalar FogSequentialForward.fog[27].dispatcher probeQueries 0
scalar FogSequentialForward.fog[27].dispatcher probeAnswers 0
scalar FogSequentialForward.fog[27].dispatcher droppedJobsSLA 43110
scalar FogSequentialForward.fog[27].dispatcher jobs_class_1 4940316
scalar FogSequentialForward.fog[27].dispatcher remoteJobs_class_1 3496072
scalar FogSequentialForward.fog[27].dispatcher localJobs_class_1 1401134
scalar FogSequentialForward.fog[27].dispatcher droppedJobsSLA_class_1 43110
scalar FogSequentialForward.fog[27].server[0] rho 1
scalar FogSequentialForward.fog[27].server[0] congestionRatio 0
scalar FogSequentialForward.fog[27].server[0] totalJobs 1401134
scalar FogSequentialForward.fog[27].server[0] droppedJobsQueue 52735
scalar FogSequentialForward.fog[27].server[0] droppedJobsTimout 0
scalar FogSequentialForward.fog[27].server[0] droppedJobsSLA 934944
scalar FogSequentialForward.fog[27].server[0] droppedJobsTotal 987679
scalar FogSequentialForward.fog[28].dispatcher localJobs 1400011
scalar FogSequentialForward.fog[28].dispatcher internalJobs 1442007
scalar FogSequentialForward.fog[28].dispatcher externalJobs 3498025
scalar FogSequentialForward.fog[28].dispatcher remoteJobs 3497397
scalar FogSequentialForward.fog[28].dispatcher probeQueries 0
scalar FogSequentialForward.fog[28].dispatcher probeAnswers 0
scalar FogSequentialForward.fog[28].dispatcher droppedJobsSLA 42624
scalar FogSequentialForward.fog[28].dispatcher jobs_class_1 4940032
scalar FogSequentialForward.fog[28].dispatcher remoteJobs_class_1 3497397
scalar FogSequentialForward.fog[28].dispatcher localJobs_class_1 1400011
scalar FogSequentialForward.fog[28].dispatcher droppedJobsSLA_class_1 42624
scalar FogSequentialForward.fog[28].server[0] rho 1
scalar FogSequentialForward.fog[28].server[0] congestionRatio 0
scalar FogSequentialForward.fog[28].server[0] totalJobs 1400011
scalar FogSequentialForward.fog[28].server[0] droppedJobsQueue 52383
scalar FogSequentialForward.fog[28].server[0] droppedJobsTimout 0
scalar FogSequentialForward.fog[28].server[0] droppedJobsSLA 934818
scalar FogSequentialForward.fog[28].server[0] droppedJobsTotal 987201
scalar FogSequentialForward.fog[29].dispatcher localJobs 1399719
scalar FogSequentialForward.fog[29].dispatcher internalJobs 1442688
scalar FogSequentialForward.fog[29].dispatcher externalJobs 3493475
scalar FogSequentialForward.fog[29].dispatcher remoteJobs 3493761
scalar FogSequentialForward.fog[29].dispatcher probeQueries 0
scalar FogSequentialForward.fog[29].dispatcher probeAnswers 0
scalar FogSequentialForward.fog[29].dispatcher droppedJobsSLA 42683
scalar FogSequentialForward.fog[29].dispatcher jobs_class_1 4936163
scalar FogSequentialForward.fog[29].dispatcher remoteJobs_class_1 3493761
scalar FogSequentialForward.fog[29].dispatcher localJobs_class_1 1399719
scalar FogSequentialForward.fog[29].dispatcher droppedJobsSLA_class_1 42683
scalar FogSequentialForward.fog[29].server[0] rho 1
scalar FogSequentialForward.fog[29].server[0] congestionRatio 0
scalar FogSequentialForward.fog[29].server[0] totalJobs 1399719
scalar FogSequentialForward.fog[29].server[0] droppedJobsQueue 52287
scalar FogSequentialForward.fog[29].server[0] droppedJobsTimout 0
scalar FogSequentialForward.fog[29].server[0] droppedJobsSLA 934021
scalar FogSequentialForward.fog[29].server[0] droppedJobsTotal 986308
scalar FogSequentialForward.fog[30].dispatcher localJobs 1399381
scalar FogSequentialForward.fog[30].dispatcher internalJobs 1445179
scalar FogSequentialForward.fog[30].dispatcher externalJobs 3493895
scalar FogSequentialForward.fog[30].dispatcher remoteJobs 3496998
scalar FogSequentialForward.fog[30].dispatcher probeQueries 0
scalar FogSequentialForward.fog[30].dispatcher probeAnswers 0
scalar FogSequentialForward.fog[30].dispatcher droppedJobsSLA 42695
scalar FogSequentialForward.fog[30].dispatcher jobs_class_1 4939074
scalar FogSequentialForward.fog[30].dispatcher remoteJobs_class_1 3496998
scalar FogSequentialForward.fog[30].dispatcher localJobs_class_1 1399381
scalar FogSequentialForward.fog[30].dispatcher droppedJobsSLA_class_1 42695
scalar FogSequentialForward.fog[30].server[0] rho 1
scalar FogSequentialForward.fog[30].server[0] congestionRatio 0
scalar FogSequentialForward.fog[30].server[0] totalJobs 1399381
scalar FogSequentialForward.fog[30].server[0] droppedJobsQueue 52235
scalar FogSequentialForward.fog[30].server[0] droppedJobsTimout 0
scalar FogSequentialForward.fog[30].server[0] droppedJobsSLA 933661
scalar FogSequentialForward.fog[30].server[0] droppedJobsTotal 985896
scalar FogSequentialForward.fog[31].dispatcher localJobs 1400200
scalar FogSequentialForward.fog[31].dispatcher internalJobs 1442973
scalar FogSequentialForward.fog[31].dispatcher externalJobs 3493611
scalar FogSequentialForward.fog[31].dispatcher remoteJobs 3493836
scalar FogSequentialForward.fog[31].dispatcher probeQueries 0
scalar FogSequentialForward.fog[31].dispatcher probeAnswers 0
scalar FogSequentialForward.fog[31].dispatcher droppedJobsSLA 42548
scalar FogSequentialForward.fog[31].dispatcher jobs_class_1 4936584
scalar FogSequentialForward.fog[31].dispatcher remoteJobs_class_1 3493836
scalar FogSequentialForward.fog[31].dispatcher localJobs_class_1 1400200
scalar FogSequentialForward.fog[31].dispatcher droppedJobsSLA_class_1 42548
scalar FogSequentialForward.fog[31].server[0] rho 1
scalar FogSequentialForward.fog[31].server[0] congestionRatio 0
scalar FogSequentialForward.fog[31].server[0] totalJobs 1400200
scalar FogSequentialForward.fog[31].server[0] droppedJobsQueue 52337
scalar FogSequentialForward.fog[31].server[0] droppedJobsTimout 0
scalar FogSequentialForward.fog[31].server[0] droppedJobsSLA 934475
scalar FogSequentialForward.fog[31].server[0] droppedJobsTotal 986812
scalar FogSequentialForward.fog[32].dispatcher localJobs 1399865
scalar FogSequentialForward.fog[32].dispatcher internalJobs 1444598
scalar FogSequentialForward.fog[32].dispatcher externalJobs 3495102
scalar FogSequentialForward.fog[32].dispatcher remoteJobs 3497356
scalar FogSequentialForward.fog[32].dispatcher probeQueries 0
scalar FogSequentialForward.fog[32].dispatcher probeAnswers 0
scalar FogSequentialForward.fog[32].dispatcher droppedJobsSLA 42479
scalar FogSequentialForward.fog[32].dispatcher jobs_class_1 4939700
scalar FogSequentialForward.fog[32].dispatcher remoteJobs_class_1 3497356
scalar FogSequentialForward.fog[32].dispatcher localJobs_class_1 1399865
scalar FogSequentialForward.fog[32].dispatcher droppedJobsSLA_class_1 42479
scalar FogSequentialForward.fog[32].server[0] rho 1
scalar FogSequentialForward.fog[32].server[0] congestionRatio 0
scalar FogSequentialForward.fog[32].server[0] totalJobs 1399865
scalar FogSequentialForward.fog[32].server[0] droppedJobsQueue 52252
scalar FogSequentialForward.fog[32].server[0] droppedJobsTimout 0
scalar FogSequentialForward.fog[32].server[0] droppedJobsSLA 933587
scalar FogSequentialForward.fog[32].server[0] droppedJobsTotal 985839
scalar FogSequentialForward.fog[33].dispatcher localJobs 1399869
scalar FogSequentialForward.fog[33].dispatcher internalJobs 1443453
scalar FogSequentialForward.fog[33].dispatcher externalJobs 3493955
scalar FogSequentialForward.fog[33].dispatcher remoteJobs 3494996
scalar FogSequentialForward.fog[33].dispatcher probeQueries 0
scalar FogSequentialForward.fog[33].dispatcher probeAnswers 0
scalar FogSequentialForward.fog[33].dispatcher droppedJobsSLA 42543
scalar FogSequentialForward.fog[33].dispatcher jobs_class_1 4937408
scalar FogSequentialForward.fog[33].dispatcher remoteJobs_class_1 3494996
scalar FogSequentialForward.fog[33].dispatcher localJobs_class_1 1399869
scalar FogSequentialForward.fog[33].dispatcher droppedJobsSLA_class_1 42543
scalar FogSequentialForward.fog[33].server[0] rho 0.99999970197678
scalar FogSequentialForward.fog[33].server[0] congestionRatio 0
scalar FogSequentialForward.fog[33].server[0] totalJobs 1399869
scalar FogSequentialForward.fog[33].server[0] droppedJobsQueue 52164
scalar FogSequentialForward.fog[33].server[0] droppedJobsTimout 0
scalar FogSequentialForward.fog[33].server[0] droppedJobsSLA 934930
scalar FogSequentialForward.fog[33].server[0] droppedJobsTotal 987094
scalar FogSequentialForward.fog[34].dispatcher localJobs 1399974
scalar FogSequentialForward.fog[34].dispatcher internalJobs 1443362
scalar FogSequentialForward.fog[34].dispatcher externalJobs 3497019
scalar FogSequentialForward.fog[34].dispatcher remoteJobs 3497641
scalar FogSequentialForward.fog[34].dispatcher probeQueries 0
scalar FogSequentialForward.fog[34].dispatcher probeAnswers 0
scalar FogSequentialForward.fog[34].dispatcher droppedJobsSLA 42766
scalar FogSequentialForward.fog[34].dispatcher jobs_class_1 4940381
scalar FogSequentialForward.fog[34].dispatcher remoteJobs_class_1 3497641
scalar FogSequentialForward.fog[34].dispatcher localJobs_class_1 1399974
scalar FogSequentialForward.fog[34].dispatcher droppedJobsSLA_class_1 42766
scalar FogSequentialForward.fog[34].server[0] rho 1
scalar FogSequentialForward.fog[34].server[0] congestionRatio 0
scalar FogSequentialForward.fog[34].server[0] totalJobs 1399974
scalar FogSequentialForward.fog[34].server[0] droppedJobsQueue 52162
scalar FogSequentialForward.fog[34].server[0] droppedJobsTimout 0
scalar FogSequentialForward.fog[34].server[0] droppedJobsSLA 934180
scalar FogSequentialForward.fog[34].server[0] droppedJobsTotal 986342
scalar FogSequentialForward.fog[35].dispatcher localJobs 1399737
scalar FogSequentialForward.fog[35].dispatcher internalJobs 1438916
scalar FogSequentialForward.fog[35].dispatcher externalJobs 3494834
scalar FogSequentialForward.fog[35].dispatcher remoteJobs 3491110
scalar FogSequentialForward.fog[35].dispatcher probeQueries 0
scalar FogSequentialForward.fog[35].dispatcher probeAnswers 0
scalar FogSequentialForward.fog[35].dispatcher droppedJobsSLA 42903
scalar FogSequentialForward.fog[35].dispatcher jobs_class_1 4933750
scalar FogSequentialForward.fog[35].dispatcher remoteJobs_class_1 3491110
scalar FogSequentialForward.fog[35].dispatcher localJobs_class_1 1399737
scalar FogSequentialForward.fog[35].dispatcher droppedJobsSLA_class_1 42903
scalar FogSequentialForward.fog[35].server[0] rho 1
scalar FogSequentialForward.fog[35].server[0] congestionRatio 0
scalar FogSequentialForward.fog[35].server[0] totalJobs 1399737
scalar FogSequentialForward.fog[35].server[0] droppedJobsQueue 51952
scalar FogSequentialForward.fog[35].server[0] droppedJobsTimout 0
scalar FogSequentialForward.fog[35].server[0] droppedJobsSLA 934145
scalar FogSequentialForward.fog[35].server[0] droppedJobsTotal 986097
scalar FogSequentialForward.fog[36].dispatcher localJobs 1400332
scalar FogSequentialForward.fog[36].dispatcher internalJobs 1444663
scalar FogSequentialForward.fog[36].dispatcher externalJobs 3497569
scalar FogSequentialForward.fog[36].dispatcher remoteJobs 3498899
scalar FogSequentialForward.fog[36].dispatcher probeQueries 0
scalar FogSequentialForward.fog[36].dispatcher probeAnswers 0
scalar FogSequentialForward.fog[36].dispatcher droppedJobsSLA 43001
scalar FogSequentialForward.fog[36].dispatcher jobs_class_1 4942232
scalar FogSequentialForward.fog[36].dispatcher remoteJobs_class_1 3498899
scalar FogSequentialForward.fog[36].dispatcher localJobs_class_1 1400332
scalar FogSequentialForward.fog[36].dispatcher droppedJobsSLA_class_1 43001
scalar FogSequentialForward.fog[36].server[0] rho 1
scalar FogSequentialForward.fog[36].server[0] congestionRatio 0
scalar FogSequentialForward.fog[36].server[0] totalJobs 1400332
scalar FogSequentialForward.fog[36].server[0] droppedJobsQueue 52699
scalar FogSequentialForward.fog[36].server[0] droppedJobsTimout 0
scalar FogSequentialForward.fog[36].server[0] droppedJobsSLA 934570
scalar FogSequentialForward.fog[36].server[0] droppedJobsTotal 987269
scalar FogSequentialForward.fog[37].dispatcher localJobs 1400092
scalar FogSequentialForward.fog[37].dispatcher internalJobs 1443211
scalar FogSequentialForward.fog[37].dispatcher externalJobs 3495500
scalar FogSequentialForward.fog[37].dispatcher remoteJobs 3496056
scalar FogSequentialForward.fog[37].dispatcher probeQueries 0
scalar FogSequentialForward.fog[37].dispatcher probeAnswers 0
scalar FogSequentialForward.fog[37].dispatcher droppedJobsSLA 42563
scalar FogSequentialForward.fog[37].dispatcher jobs_class_1 4938711
scalar FogSequentialForward.fog[37].dispatcher remoteJobs_class_1 3496056
scalar FogSequentialForward.fog[37].dispatcher localJobs_class_1 1400092
scalar FogSequentialForward.fog[37].dispatcher droppedJobsSLA_class_1 42563
scalar FogSequentialForward.fog[37].server[0] rho 0.99999958276749
scalar FogSequentialForward.fog[37].server[0] congestionRatio 0
scalar FogSequentialForward.fog[37].server[0] totalJobs 1400092
scalar FogSequentialForward.fog[37].server[0] droppedJobsQueue 52376
scalar FogSequentialForward.fog[37].server[0] droppedJobsTimout 0
scalar FogSequentialForward.fog[37].server[0] droppedJobsSLA 934250
scalar FogSequentialForward.fog[37].server[0] droppedJobsTotal 986626
scalar FogSequentialForward.fog[38].dispatcher localJobs 1401101
scalar FogSequentialForward.fog[38].dispatcher internalJobs 1441933
scalar FogSequentialForward.fog[38].dispatcher externalJobs 3496460
scalar FogSequentialForward.fog[38].dispatcher remoteJobs 3494817
scalar FogSequentialForward.fog[38].dispatcher probeQueries 0
scalar FogSequentialForward.fog[38].dispatcher probeAnswers 0
scalar FogSequentialForward.fog[38].dispatcher droppedJobsSLA 42475
scalar FogSequentialForward.fog[38].dispatcher jobs_class_1 4938393
scalar FogSequentialForward.fog[38].dispatcher remoteJobs_class_1 3494817
scalar FogSequentialForward.fog[38].dispatcher localJobs_class_1 1401101
scalar FogSequentialForward.fog[38].dispatcher droppedJobsSLA_class_1 42475
scalar FogSequentialForward.fog[38].server[0] rho 1
scalar FogSequentialForward.fog[38].server[0] congestionRatio 0
scalar FogSequentialForward.fog[38].server[0] totalJobs 1401101
scalar FogSequentialForward.fog[38].server[0] droppedJobsQueue 52586
scalar FogSequentialForward.fog[38].server[0] droppedJobsTimout 0
scalar FogSequentialForward.fog[38].server[0] droppedJobsSLA 934880
scalar FogSequentialForward.fog[38].server[0] droppedJobsTotal 987466
scalar FogSequentialForward.fog[39].dispatcher localJobs 1399656
scalar FogSequentialForward.fog[39].dispatcher internalJobs 1442415
scalar FogSequentialForward.fog[39].dispatcher externalJobs 3494731
scalar FogSequentialForward.fog[39].dispatcher remoteJobs 3494629
scalar FogSequentialForward.fog[39].dispatcher probeQueries 0
scalar FogSequentialForward.fog[39].dispatcher probeAnswers 0
scalar FogSequentialForward.fog[39].dispatcher droppedJobsSLA 42861
scalar FogSequentialForward.fog[39].dispatcher jobs_class_1 4937146
scalar FogSequentialForward.fog[39].dispatcher remoteJobs_class_1 3494629
scalar FogSequentialForward.fog[39].dispatcher localJobs_class_1 1399656
scalar FogSequentialForward.fog[39].dispatcher droppedJobsSLA_class_1 42861
scalar FogSequentialForward.fog[39].server[0] rho 1
scalar FogSequentialForward.fog[39].server[0] congestionRatio 0
scalar FogSequentialForward.fog[39].server[0] totalJobs 1399656
scalar FogSequentialForward.fog[39].server[0] droppedJobsQueue 52344
scalar FogSequentialForward.fog[39].server[0] droppedJobsTimout 0
scalar FogSequentialForward.fog[39].server[0] droppedJobsSLA 934643
scalar FogSequentialForward.fog[39].server[0] droppedJobsTotal 986987
scalar FogSequentialForward.fog[40].dispatcher localJobs 1399878
scalar FogSequentialForward.fog[40].dispatcher internalJobs 1443070
scalar FogSequentialForward.fog[40].dispatcher externalJobs 3497714
scalar FogSequentialForward.fog[40].dispatcher remoteJobs 3498353
scalar FogSequentialForward.fog[40].dispatcher probeQueries 0
scalar FogSequentialForward.fog[40].dispatcher probeAnswers 0
scalar FogSequentialForward.fog[40].dispatcher droppedJobsSLA 42553
scalar FogSequentialForward.fog[40].dispatcher jobs_class_1 4940784
scalar FogSequentialForward.fog[40].dispatcher remoteJobs_class_1 3498353
scalar FogSequentialForward.fog[40].dispatcher localJobs_class_1 1399878
scalar FogSequentialForward.fog[40].dispatcher droppedJobsSLA_class_1 42553
scalar FogSequentialForward.fog[40].server[0] rho 1
scalar FogSequentialForward.fog[40].server[0] congestionRatio 0
scalar FogSequentialForward.fog[40].server[0] totalJobs 1399878
scalar FogSequentialForward.fog[40].server[0] droppedJobsQueue 52257
scalar FogSequentialForward.fog[40].server[0] droppedJobsTimout 0
scalar FogSequentialForward.fog[40].server[0] droppedJobsSLA 934903
scalar FogSequentialForward.fog[40].server[0] droppedJobsTotal 987160
scalar FogSequentialForward.fog[41].dispatcher localJobs 1400732
scalar FogSequentialForward.fog[41].dispatcher internalJobs 1441853
scalar FogSequentialForward.fog[41].dispatcher externalJobs 3497169
scalar FogSequentialForward.fog[41].dispatcher remoteJobs 3495521
scalar FogSequentialForward.fog[41].dispatcher probeQueries 0
scalar FogSequentialForward.fog[41].dispatcher probeAnswers 0
scalar FogSequentialForward.fog[41].dispatcher droppedJobsSLA 42769
scalar FogSequentialForward.fog[41].dispatcher jobs_class_1 4939022
scalar FogSequentialForward.fog[41].dispatcher remoteJobs_class_1 3495521
scalar FogSequentialForward.fog[41].dispatcher localJobs_class_1 1400732
scalar FogSequentialForward.fog[41].dispatcher droppedJobsSLA_class_1 42769
scalar FogSequentialForward.fog[41].server[0] rho 1
scalar FogSequentialForward.fog[41].server[0] congestionRatio 0
scalar FogSequentialForward.fog[41].server[0] totalJobs 1400732
scalar FogSequentialForward.fog[41].server[0] droppedJobsQueue 52404
scalar FogSequentialForward.fog[41].server[0] droppedJobsTimout 0
scalar FogSequentialForward.fog[41].server[0] droppedJobsSLA 934920
scalar FogSequentialForward.fog[41].server[0] droppedJobsTotal 987324
scalar FogSequentialForward.fog[42].dispatcher localJobs 1400264
scalar FogSequentialForward.fog[42].dispatcher internalJobs 1443174
scalar FogSequentialForward.fog[42].dispatcher externalJobs 3495749
scalar FogSequentialForward.fog[42].dispatcher remoteJobs 3496151
scalar FogSequentialForward.fog[42].dispatcher probeQueries 0
scalar FogSequentialForward.fog[42].dispatcher probeAnswers 0
scalar FogSequentialForward.fog[42].dispatcher droppedJobsSLA 42508
scalar FogSequentialForward.fog[42].dispatcher jobs_class_1 4938923
scalar FogSequentialForward.fog[42].dispatcher remoteJobs_class_1 3496151
scalar FogSequentialForward.fog[42].dispatcher localJobs_class_1 1400264
scalar FogSequentialForward.fog[42].dispatcher droppedJobsSLA_class_1 42508
scalar FogSequentialForward.fog[42].server[0] rho 1
scalar FogSequentialForward.fog[42].server[0] congestionRatio 0
scalar FogSequentialForward.fog[42].server[0] totalJobs 1400264
scalar FogSequentialForward.fog[42].server[0] droppedJobsQueue 52594
scalar FogSequentialForward.fog[42].server[0] droppedJobsTimout 0
scalar FogSequentialForward.fog[42].server[0] droppedJobsSLA 935109
scalar FogSequentialForward.fog[42].server[0] droppedJobsTotal 987703
scalar FogSequentialForward.fog[43].dispatcher localJobs 1400244
scalar FogSequentialForward.fog[43].dispatcher internalJobs 1442692
scalar FogSequentialForward.fog[43].dispatcher externalJobs 3494943
scalar FogSequentialForward.fog[43].dispatcher remoteJobs 3495105
scalar FogSequentialForward.fog[43].dispatcher probeQueries 0
scalar FogSequentialForward.fog[43].dispatcher probeAnswers 0
scalar FogSequentialForward.fog[43].dispatcher droppedJobsSLA 42286
scalar FogSequentialForward.fog[43].dispatcher jobs_class_1 4937635
scalar FogSequentialForward.fog[43].dispatcher remoteJobs_class_1 3495105
scalar FogSequentialForward.fog[43].dispatcher localJobs_class_1 1400244
scalar FogSequentialForward.fog[43].dispatcher droppedJobsSLA_class_1 42286
scalar FogSequentialForward.fog[43].server[0] rho 1
scalar FogSequentialForward.fog[43].server[0] congestionRatio 0
scalar FogSequentialForward.fog[43].server[0] totalJobs 1400244
scalar FogSequentialForward.fog[43].server[0] droppedJobsQueue 52380
scalar FogSequentialForward.fog[43].server[0] droppedJobsTimout 0
scalar FogSequentialForward.fog[43].server[0] droppedJobsSLA 934085
scalar FogSequentialForward.fog[43].server[0] droppedJobsTotal 986465
scalar FogSequentialForward.fog[44].dispatcher localJobs 1399724
scalar FogSequentialForward.fog[44].dispatcher internalJobs 1441747
scalar FogSequentialForward.fog[44].dispatcher externalJobs 3498291
scalar FogSequentialForward.fog[44].dispatcher remoteJobs 3497587
scalar FogSequentialForward.fog[44].dispatcher probeQueries 0
scalar FogSequentialForward.fog[44].dispatcher probeAnswers 0
scalar FogSequentialForward.fog[44].dispatcher droppedJobsSLA 42727
scalar FogSequentialForward.fog[44].dispatcher jobs_class_1 4940038
scalar FogSequentialForward.fog[44].dispatcher remoteJobs_class_1 3497587
scalar FogSequentialForward.fog[44].dispatcher localJobs_class_1 1399724
scalar FogSequentialForward.fog[44].dispatcher droppedJobsSLA_class_1 42727
scalar FogSequentialForward.fog[44].server[0] rho 1
scalar FogSequentialForward.fog[44].server[0] congestionRatio 0
scalar FogSequentialForward.fog[44].server[0] totalJobs 1399724
scalar FogSequentialForward.fog[44].server[0] droppedJobsQueue 52104
scalar FogSequentialForward.fog[44].server[0] droppedJobsTimout 0
scalar FogSequentialForward.fog[44].server[0] droppedJobsSLA 934394
scalar FogSequentialForward.fog[44].server[0] droppedJobsTotal 986498
scalar FogSequentialForward.fog[45].dispatcher localJobs 1400260
scalar FogSequentialForward.fog[45].dispatcher internalJobs 1443191
scalar FogSequentialForward.fog[45].dispatcher externalJobs 3495011
scalar FogSequentialForward.fog[45].dispatcher remoteJobs 3494958
scalar FogSequentialForward.fog[45].dispatcher probeQueries 0
scalar FogSequentialForward.fog[45].dispatcher probeAnswers 0
scalar FogSequentialForward.fog[45].dispatcher droppedJobsSLA 42984
scalar FogSequentialForward.fog[45].dispatcher jobs_class_1 4938202
scalar FogSequentialForward.fog[45].dispatcher remoteJobs_class_1 3494958
scalar FogSequentialForward.fog[45].dispatcher localJobs_class_1 1400260
scalar FogSequentialForward.fog[45].dispatcher droppedJobsSLA_class_1 42984
scalar FogSequentialForward.fog[45].server[0] rho 1
scalar FogSequentialForward.fog[45].server[0] congestionRatio 0
scalar FogSequentialForward.fog[45].server[0] totalJobs 1400260
scalar FogSequentialForward.fog[45].server[0] droppedJobsQueue 52223
scalar FogSequentialForward.fog[45].server[0] droppedJobsTimout 0
scalar FogSequentialForward.fog[45].server[0] droppedJobsSLA 935315
scalar FogSequentialForward.fog[45].server[0] droppedJobsTotal 987538
scalar FogSequentialForward.fog[46].dispatcher localJobs 1399945
scalar FogSequentialForward.fog[46].dispatcher internalJobs 1441589
scalar FogSequentialForward.fog[46].dispatcher externalJobs 3497418
scalar FogSequentialForward.fog[46].dispatcher remoteJobs 3496216
scalar FogSequentialForward.fog[46].dispatcher probeQueries 0
scalar FogSequentialForward.fog[46].dispatcher probeAnswers 0
scalar FogSequentialForward.fog[46].dispatcher droppedJobsSLA 42846
scalar FogSequentialForward.fog[46].dispatcher jobs_class_1 4939007
scalar FogSequentialForward.fog[46].dispatcher remoteJobs_class_1 3496216
scalar FogSequentialForward.fog[46].dispatcher localJobs_class_1 1399945
scalar FogSequentialForward.fog[46].dispatcher droppedJobsSLA_class_1 42846
scalar FogSequentialForward.fog[46].server[0] rho 1
scalar FogSequentialForward.fog[46].server[0] congestionRatio 0
scalar FogSequentialForward.fog[46].server[0] totalJobs 1399945
scalar FogSequentialForward.fog[46].server[0] droppedJobsQueue 52257
scalar FogSequentialForward.fog[46].server[0] droppedJobsTimout 0
scalar FogSequentialForward.fog[46].server[0] droppedJobsSLA 933827
scalar FogSequentialForward.fog[46].server[0] droppedJobsTotal 986084
scalar FogSequentialForward.fog[47].dispatcher localJobs 1400709
scalar FogSequentialForward.fog[47].dispatcher internalJobs 1442154
scalar FogSequentialForward.fog[47].dispatcher externalJobs 3495972
scalar FogSequentialForward.fog[47].dispatcher remoteJobs 3494880
scalar FogSequentialForward.fog[47].dispatcher probeQueries 0
scalar FogSequentialForward.fog[47].dispatcher probeAnswers 0
scalar FogSequentialForward.fog[47].dispatcher droppedJobsSLA 42537
scalar FogSequentialForward.fog[47].dispatcher jobs_class_1 4938126
scalar FogSequentialForward.fog[47].dispatcher remoteJobs_class_1 3494880
scalar FogSequentialForward.fog[47].dispatcher localJobs_class_1 1400709
scalar FogSequentialForward.fog[47].dispatcher droppedJobsSLA_class_1 42537
scalar FogSequentialForward.fog[47].server[0] rho 1
scalar FogSequentialForward.fog[47].server[0] congestionRatio 0
scalar FogSequentialForward.fog[47].server[0] totalJobs 1400709
scalar FogSequentialForward.fog[47].server[0] droppedJobsQueue 52409
scalar FogSequentialForward.fog[47].server[0] droppedJobsTimout 0
scalar FogSequentialForward.fog[47].server[0] droppedJobsSLA 934143
scalar FogSequentialForward.fog[47].server[0] droppedJobsTotal 986552
scalar FogSequentialForward.fog[48].dispatcher localJobs 1399631
scalar FogSequentialForward.fog[48].dispatcher internalJobs 1443529
scalar FogSequentialForward.fog[48].dispatcher externalJobs 3495211
scalar FogSequentialForward.fog[48].dispatcher remoteJobs 3496295
scalar FogSequentialForward.fog[48].dispatcher probeQueries 0
scalar FogSequentialForward.fog[48].dispatcher probeAnswers 0
scalar FogSequentialForward.fog[48].dispatcher droppedJobsSLA 42814
scalar FogSequentialForward.fog[48].dispatcher jobs_class_1 4938740
scalar FogSequentialForward.fog[48].dispatcher remoteJobs_class_1 3496295
scalar FogSequentialForward.fog[48].dispatcher localJobs_class_1 1399631
scalar FogSequentialForward.fog[48].dispatcher droppedJobsSLA_class_1 42814
scalar FogSequentialForward.fog[48].server[0] rho 1
scalar FogSequentialForward.fog[48].server[0] congestionRatio 0
scalar FogSequentialForward.fog[48].server[0] totalJobs 1399631
scalar FogSequentialForward.fog[48].server[0] droppedJobsQueue 52394
scalar FogSequentialForward.fog[48].server[0] droppedJobsTimout 0
scalar FogSequentialForward.fog[48].server[0] droppedJobsSLA 933587
scalar FogSequentialForward.fog[48].server[0] droppedJobsTotal 985981
scalar FogSequentialForward.fog[49].dispatcher localJobs 1399519
scalar FogSequentialForward.fog[49].dispatcher internalJobs 1441108
scalar FogSequentialForward.fog[49].dispatcher externalJobs 3495165
scalar FogSequentialForward.fog[49].dispatcher remoteJobs 3494245
scalar FogSequentialForward.fog[49].dispatcher probeQueries 0
scalar FogSequentialForward.fog[49].dispatcher probeAnswers 0
scalar FogSequentialForward.fog[49].dispatcher droppedJobsSLA 42509
scalar FogSequentialForward.fog[49].dispatcher jobs_class_1 4936273
scalar FogSequentialForward.fog[49].dispatcher remoteJobs_class_1 3494245
scalar FogSequentialForward.fog[49].dispatcher localJobs_class_1 1399519
scalar FogSequentialForward.fog[49].dispatcher droppedJobsSLA_class_1 42509
scalar FogSequentialForward.fog[49].server[0] rho 0.99999958276749
scalar FogSequentialForward.fog[49].server[0] congestionRatio 0
scalar FogSequentialForward.fog[49].server[0] totalJobs 1399519
scalar FogSequentialForward.fog[49].server[0] droppedJobsQueue 52087
scalar FogSequentialForward.fog[49].server[0] droppedJobsTimout 0
scalar FogSequentialForward.fog[49].server[0] droppedJobsSLA 934196
scalar FogSequentialForward.fog[49].server[0] droppedJobsTotal 986283
scalar FogSequentialForward.fog[50].dispatcher localJobs 1399927
scalar FogSequentialForward.fog[50].dispatcher internalJobs 1445647
scalar FogSequentialForward.fog[50].dispatcher externalJobs 3496244
scalar FogSequentialForward.fog[50].dispatcher remoteJobs 3499221
scalar FogSequentialForward.fog[50].dispatcher probeQueries 0
scalar FogSequentialForward.fog[50].dispatcher probeAnswers 0
scalar FogSequentialForward.fog[50].dispatcher droppedJobsSLA 42743
scalar FogSequentialForward.fog[50].dispatcher jobs_class_1 4941891
scalar FogSequentialForward.fog[50].dispatcher remoteJobs_class_1 3499221
scalar FogSequentialForward.fog[50].dispatcher localJobs_class_1 1399927
scalar FogSequentialForward.fog[50].dispatcher droppedJobsSLA_class_1 42743
scalar FogSequentialForward.fog[50].server[0] rho 1
scalar FogSequentialForward.fog[50].server[0] congestionRatio 0
scalar FogSequentialForward.fog[50].server[0] totalJobs 1399927
scalar FogSequentialForward.fog[50].server[0] droppedJobsQueue 52497
scalar FogSequentialForward.fog[50].server[0] droppedJobsTimout 0
scalar FogSequentialForward.fog[50].server[0] droppedJobsSLA 934077
scalar FogSequentialForward.fog[50].server[0] droppedJobsTotal 986574
scalar FogSequentialForward.fog[51].dispatcher localJobs 1401570
scalar FogSequentialForward.fog[51].dispatcher internalJobs 1443198
scalar FogSequentialForward.fog[51].dispatcher externalJobs 3499358
scalar FogSequentialForward.fog[51].dispatcher remoteJobs 3498102
scalar FogSequentialForward.fog[51].dispatcher probeQueries 0
scalar FogSequentialForward.fog[51].dispatcher probeAnswers 0
scalar FogSequentialForward.fog[51].dispatcher droppedJobsSLA 42884
scalar FogSequentialForward.fog[51].dispatcher jobs_class_1 4942556
scalar FogSequentialForward.fog[51].dispatcher remoteJobs_class_1 3498102
scalar FogSequentialForward.fog[51].dispatcher localJobs_class_1 1401570
scalar FogSequentialForward.fog[51].dispatcher droppedJobsSLA_class_1 42884
scalar FogSequentialForward.fog[51].server[0] rho 0.99999821186066
scalar FogSequentialForward.fog[51].server[0] congestionRatio 0
scalar FogSequentialForward.fog[51].server[0] totalJobs 1401570
scalar FogSequentialForward.fog[51].server[0] droppedJobsQueue 52701
scalar FogSequentialForward.fog[51].server[0] droppedJobsTimout 0
scalar FogSequentialForward.fog[51].server[0] droppedJobsSLA 934950
scalar FogSequentialForward.fog[51].server[0] droppedJobsTotal 987651
scalar FogSequentialForward.fog[52].dispatcher localJobs 1399984
scalar FogSequentialForward.fog[52].dispatcher internalJobs 1441040
scalar FogSequentialForward.fog[52].dispatcher externalJobs 3494663
scalar FogSequentialForward.fog[52].dispatcher remoteJobs 3492967
scalar FogSequentialForward.fog[52].dispatcher probeQueries 0
scalar FogSequentialForward.fog[52].dispatcher probeAnswers 0
scalar FogSequentialForward.fog[52].dispatcher droppedJobsSLA 42752
scalar FogSequentialForward.fog[52].dispatcher jobs_class_1 4935703
scalar FogSequentialForward.fog[52].dispatcher remoteJobs_class_1 3492967
scalar FogSequentialForward.fog[52].dispatcher localJobs_class_1 1399984
scalar FogSequentialForward.fog[52].dispatcher droppedJobsSLA_class_1 42752
scalar FogSequentialForward.fog[52].server[0] rho 1
scalar FogSequentialForward.fog[52].server[0] congestionRatio 0
scalar FogSequentialForward.fog[52].server[0] totalJobs 1399984
scalar FogSequentialForward.fog[52].server[0] droppedJobsQueue 52015
scalar FogSequentialForward.fog[52].server[0] droppedJobsTimout 0
scalar FogSequentialForward.fog[52].server[0] droppedJobsSLA 933713
scalar FogSequentialForward.fog[52].server[0] droppedJobsTotal 985728
scalar FogSequentialForward.fog[53].dispatcher localJobs 1400496
scalar FogSequentialForward.fog[53].dispatcher internalJobs 1444561
scalar FogSequentialForward.fog[53].dispatcher externalJobs 3496409
scalar FogSequentialForward.fog[53].dispatcher remoteJobs 3497604
scalar FogSequentialForward.fog[53].dispatcher probeQueries 0
scalar FogSequentialForward.fog[53].dispatcher probeAnswers 0
scalar FogSequentialForward.fog[53].dispatcher droppedJobsSLA 42870
scalar FogSequentialForward.fog[53].dispatcher jobs_class_1 4940970
scalar FogSequentialForward.fog[53].dispatcher remoteJobs_class_1 3497604
scalar FogSequentialForward.fog[53].dispatcher localJobs_class_1 1400496
scalar FogSequentialForward.fog[53].dispatcher droppedJobsSLA_class_1 42870
scalar FogSequentialForward.fog[53].server[0] rho 1
scalar FogSequentialForward.fog[53].server[0] congestionRatio 0
scalar FogSequentialForward.fog[53].server[0] totalJobs 1400496
scalar FogSequentialForward.fog[53].server[0] droppedJobsQueue 52285
scalar FogSequentialForward.fog[53].server[0] droppedJobsTimout 0
scalar FogSequentialForward.fog[53].server[0] droppedJobsSLA 934907
scalar FogSequentialForward.fog[53].server[0] droppedJobsTotal 987192
scalar FogSequentialForward.fog[54].dispatcher localJobs 1399833
scalar FogSequentialForward.fog[54].dispatcher internalJobs 1439947
scalar FogSequentialForward.fog[54].dispatcher externalJobs 3492860
scalar FogSequentialForward.fog[54].dispatcher remoteJobs 3490337
scalar FogSequentialForward.fog[54].dispatcher probeQueries 0
scalar FogSequentialForward.fog[54].dispatcher probeAnswers 0
scalar FogSequentialForward.fog[54].dispatcher droppedJobsSLA 42637
scalar FogSequentialForward.fog[54].dispatcher jobs_class_1 4932807
scalar FogSequentialForward.fog[54].dispatcher remoteJobs_class_1 3490337
scalar FogSequentialForward.fog[54].dispatcher localJobs_class_1 1399833
scalar FogSequentialForward.fog[54].dispatcher droppedJobsSLA_class_1 42637
scalar FogSequentialForward.fog[54].server[0] rho 1
scalar FogSequentialForward.fog[54].server[0] congestionRatio 0
scalar FogSequentialForward.fog[54].server[0] totalJobs 1399833
scalar FogSequentialForward.fog[54].server[0] droppedJobsQueue 52234
scalar FogSequentialForward.fog[54].server[0] droppedJobsTimout 0
scalar FogSequentialForward.fog[54].server[0] droppedJobsSLA 934385
scalar FogSequentialForward.fog[54].server[0] droppedJobsTotal 986619
scalar FogSequentialForward.fog[55].dispatcher localJobs 1400970
scalar FogSequentialForward.fog[55].dispatcher internalJobs 1442200
scalar FogSequentialForward.fog[55].dispatcher externalJobs 3499082
scalar FogSequentialForward.fog[55].dispatcher remoteJobs 3497548
scalar FogSequentialForward.fog[55].dispatcher probeQueries 0
scalar FogSequentialForward.fog[55].dispatcher probeAnswers 0
scalar FogSequentialForward.fog[55].dispatcher droppedJobsSLA 42764
scalar FogSequentialForward.fog[55].dispatcher jobs_class_1 4941282
scalar FogSequentialForward.fog[55].dispatcher remoteJobs_class_1 3497548
scalar FogSequentialForward.fog[55].dispatcher localJobs_class_1 1400970
scalar FogSequentialForward.fog[55].dispatcher droppedJobsSLA_class_1 42764
scalar FogSequentialForward.fog[55].server[0] rho 0.99999964237213
scalar FogSequentialForward.fog[55].server[0] congestionRatio 0
scalar FogSequentialForward.fog[55].server[0] totalJobs 1400970
scalar FogSequentialForward.fog[55].server[0] droppedJobsQueue 52629
scalar FogSequentialForward.fog[55].server[0] droppedJobsTimout 0
scalar FogSequentialForward.fog[55].server[0] droppedJobsSLA 934602
scalar FogSequentialForward.fog[55].server[0] droppedJobsTotal 987231
scalar FogSequentialForward.fog[56].dispatcher localJobs 1400061
scalar FogSequentialForward.fog[56].dispatcher internalJobs 1443580
scalar FogSequentialForward.fog[56].dispatcher externalJobs 3498102
scalar FogSequentialForward.fog[56].dispatcher remoteJobs 3499046
scalar FogSequentialForward.fog[56].dispatcher probeQueries 0
scalar FogSequentialForward.fog[56].dispatcher probeAnswers 0
scalar FogSequentialForward.fog[56].dispatcher droppedJobsSLA 42575
scalar FogSequentialForward.fog[56].dispatcher jobs_class_1 4941682
scalar FogSequentialForward.fog[56].dispatcher remoteJobs_class_1 3499046
scalar FogSequentialForward.fog[56].dispatcher localJobs_class_1 1400061
scalar FogSequentialForward.fog[56].dispatcher droppedJobsSLA_class_1 42575
scalar FogSequentialForward.fog[56].server[0] rho 1
scalar FogSequentialForward.fog[56].server[0] congestionRatio 0
scalar FogSequentialForward.fog[56].server[0] totalJobs 1400061
scalar FogSequentialForward.fog[56].server[0] droppedJobsQueue 52087
scalar FogSequentialForward.fog[56].server[0] droppedJobsTimout 0
scalar FogSequentialForward.fog[56].server[0] droppedJobsSLA 934014
scalar FogSequentialForward.fog[56].server[0] droppedJobsTotal 986101
scalar FogSequentialForward.fog[57].dispatcher localJobs 1400896
scalar FogSequentialForward.fog[57].dispatcher internalJobs 1443939
scalar FogSequentialForward.fog[57].dispatcher externalJobs 3499008
scalar FogSequentialForward.fog[57].dispatcher remoteJobs 3499674
scalar FogSequentialForward.fog[57].dispatcher probeQueries 0
scalar FogSequentialForward.fog[57].dispatcher probeAnswers 0
scalar FogSequentialForward.fog[57].dispatcher droppedJobsSLA 42377
scalar FogSequentialForward.fog[57].dispatcher jobs_class_1 4942947
scalar FogSequentialForward.fog[57].dispatcher remoteJobs_class_1 3499674
scalar FogSequentialForward.fog[57].dispatcher localJobs_class_1 1400896
scalar FogSequentialForward.fog[57].dispatcher droppedJobsSLA_class_1 42377
scalar FogSequentialForward.fog[57].server[0] rho 1
scalar FogSequentialForward.fog[57].server[0] congestionRatio 0
scalar FogSequentialForward.fog[57].server[0] totalJobs 1400896
scalar FogSequentialForward.fog[57].server[0] droppedJobsQueue 52427
scalar FogSequentialForward.fog[57].server[0] droppedJobsTimout 0
scalar FogSequentialForward.fog[57].server[0] droppedJobsSLA 934975
scalar FogSequentialForward.fog[57].server[0] droppedJobsTotal 987402
scalar FogSequentialForward.fog[58].dispatcher localJobs 1400295
scalar FogSequentialForward.fog[58].dispatcher internalJobs 1441349
scalar FogSequentialForward.fog[58].dispatcher externalJobs 3497976
scalar FogSequentialForward.fog[58].dispatcher remoteJobs 3496212
scalar FogSequentialForward.fog[58].dispatcher probeQueries 0
scalar FogSequentialForward.fog[58].dispatcher probeAnswers 0
scalar FogSequentialForward.fog[58].dispatcher droppedJobsSLA 42818
scalar FogSequentialForward.fog[58].dispatcher jobs_class_1 4939325
scalar FogSequentialForward.fog[58].dispatcher remoteJobs_class_1 3496212
scalar FogSequentialForward.fog[58].dispatcher localJobs_class_1 1400295
scalar FogSequentialForward.fog[58].dispatcher droppedJobsSLA_class_1 42818
scalar FogSequentialForward.fog[58].server[0] rho 1
scalar FogSequentialForward.fog[58].server[0] congestionRatio 0
scalar FogSequentialForward.fog[58].server[0] totalJobs 1400295
scalar FogSequentialForward.fog[58].server[0] droppedJobsQueue 52227
scalar FogSequentialForward.fog[58].server[0] droppedJobsTimout 0
scalar FogSequentialForward.fog[58].server[0] droppedJobsSLA 934087
scalar FogSequentialForward.fog[58].server[0] droppedJobsTotal 986314
scalar FogSequentialForward.fog[59].dispatcher localJobs 1399528
scalar FogSequentialForward.fog[59].dispatcher internalJobs 1442459
scalar FogSequentialForward.fog[59].dispatcher externalJobs 3495722
scalar FogSequentialForward.fog[59].dispatcher remoteJobs 3495812
scalar FogSequentialForward.fog[59].dispatcher probeQueries 0
scalar FogSequentialForward.fog[59].dispatcher probeAnswers 0
scalar FogSequentialForward.fog[59].dispatcher droppedJobsSLA 42841
scalar FogSequentialForward.fog[59].dispatcher jobs_class_1 4938181
scalar FogSequentialForward.fog[59].dispatcher remoteJobs_class_1 3495812
scalar FogSequentialForward.fog[59].dispatcher localJobs_class_1 1399528
scalar FogSequentialForward.fog[59].dispatcher droppedJobsSLA_class_1 42841
scalar FogSequentialForward.fog[59].server[0] rho 0.99999964237213
scalar FogSequentialForward.fog[59].server[0] congestionRatio 0
scalar FogSequentialForward.fog[59].server[0] totalJobs 1399528
scalar FogSequentialForward.fog[59].server[0] droppedJobsQueue 52104
scalar FogSequentialForward.fog[59].server[0] droppedJobsTimout 0
scalar FogSequentialForward.fog[59].server[0] droppedJobsSLA 934128
scalar FogSequentialForward.fog[59].server[0] droppedJobsTotal 986232
scalar FogSequentialForward.fog[60].dispatcher localJobs 1400310
scalar FogSequentialForward.fog[60].dispatcher internalJobs 1444143
scalar FogSequentialForward.fog[60].dispatcher externalJobs 3495050
scalar FogSequentialForward.fog[60].dispatcher remoteJobs 3496339
scalar FogSequentialForward.fog[60].dispatcher probeQueries 0
scalar FogSequentialForward.fog[60].dispatcher probeAnswers 0
scalar FogSequentialForward.fog[60].dispatcher droppedJobsSLA 42544
scalar FogSequentialForward.fog[60].dispatcher jobs_class_1 4939193
scalar FogSequentialForward.fog[60].dispatcher remoteJobs_class_1 3496339
scalar FogSequentialForward.fog[60].dispatcher localJobs_class_1 1400310
scalar FogSequentialForward.fog[60].dispatcher droppedJobsSLA_class_1 42544
scalar FogSequentialForward.fog[60].server[0] rho 1
scalar FogSequentialForward.fog[60].server[0] congestionRatio 0
scalar FogSequentialForward.fog[60].server[0] totalJobs 1400310
scalar FogSequentialForward.fog[60].server[0] droppedJobsQueue 52459
scalar FogSequentialForward.fog[60].server[0] droppedJobsTimout 0
scalar FogSequentialForward.fog[60].server[0] droppedJobsSLA 934753
scalar FogSequentialForward.fog[60].server[0] droppedJobsTotal 987212
scalar FogSequentialForward.fog[61].dispatcher localJobs 1400486
scalar FogSequentialForward.fog[61].dispatcher internalJobs 1444492
scalar FogSequentialForward.fog[61].dispatcher externalJobs 3496032
scalar FogSequentialForward.fog[61].dispatcher remoteJobs 3497514
scalar FogSequentialForward.fog[61].dispatcher probeQueries 0
scalar FogSequentialForward.fog[61].dispatcher probeAnswers 0
scalar FogSequentialForward.fog[61].dispatcher droppedJobsSLA 42524
scalar FogSequentialForward.fog[61].dispatcher jobs_class_1 4940524
scalar FogSequentialForward.fog[61].dispatcher remoteJobs_class_1 3497514
scalar FogSequentialForward.fog[61].dispatcher localJobs_class_1 1400486
scalar FogSequentialForward.fog[61].dispatcher droppedJobsSLA_class_1 42524
scalar FogSequentialForward.fog[61].server[0] rho 0.99999970197678
scalar FogSequentialForward.fog[61].server[0] congestionRatio 0
scalar FogSequentialForward.fog[61].server[0] totalJobs 1400486
scalar FogSequentialForward.fog[61].server[0] droppedJobsQueue 52344
scalar FogSequentialForward.fog[61].server[0] droppedJobsTimout 0
scalar FogSequentialForward.fog[61].server[0] droppedJobsSLA 934414
scalar FogSequentialForward.fog[61].server[0] droppedJobsTotal 986758
scalar FogSequentialForward.fog[62].dispatcher localJobs 1400402
scalar FogSequentialForward.fog[62].dispatcher internalJobs 1442385
scalar FogSequentialForward.fog[62].dispatcher externalJobs 3495481
scalar FogSequentialForward.fog[62].dispatcher remoteJobs 3494703
scalar FogSequentialForward.fog[62].dispatcher probeQueries 0
scalar FogSequentialForward.fog[62].dispatcher probeAnswers 0
scalar FogSequentialForward.fog[62].dispatcher droppedJobsSLA 42761
scalar FogSequentialForward.fog[62].dispatcher jobs_class_1 4937866
scalar FogSequentialForward.fog[62].dispatcher remoteJobs_class_1 3494703
scalar FogSequentialForward.fog[62].dispatcher localJobs_class_1 1400402
scalar FogSequentialForward.fog[62].dispatcher droppedJobsSLA_class_1 42761
scalar FogSequentialForward.fog[62].server[0] rho 1
scalar FogSequentialForward.fog[62].server[0] congestionRatio 0
scalar FogSequentialForward.fog[62].server[0] totalJobs 1400402
scalar FogSequentialForward.fog[62].server[0] droppedJobsQueue 52200
scalar FogSequentialForward.fog[62].server[0] droppedJobsTimout 0
scalar FogSequentialForward.fog[62].server[0] droppedJobsSLA 934286
scalar FogSequentialForward.fog[62].server[0] droppedJobsTotal 986486
scalar FogSequentialForward.fog[63].dispatcher localJobs 1400370
scalar FogSequentialForward.fog[63].dispatcher internalJobs 1441648
scalar FogSequentialForward.fog[63].dispatcher externalJobs 3495545
scalar FogSequentialForward.fog[63].dispatcher remoteJobs 3493871
scalar FogSequentialForward.fog[63].dispatcher probeQueries 0
scalar FogSequentialForward.fog[63].dispatcher probeAnswers 0
scalar FogSequentialForward.fog[63].dispatcher droppedJobsSLA 42952
scalar FogSequentialForward.fog[63].dispatcher jobs_class_1 4937193
scalar FogSequentialForward.fog[63].dispatcher remoteJobs_class_1 3493871
scalar FogSequentialForward.fog[63].dispatcher localJobs_class_1 1400370
scalar FogSequentialForward.fog[63].dispatcher droppedJobsSLA_class_1 42952
scalar FogSequentialForward.fog[63].server[0] rho 0.99999916553497
scalar FogSequentialForward.fog[63].server[0] congestionRatio 0
scalar FogSequentialForward.fog[63].server[0] totalJobs 1400370
scalar FogSequentialForward.fog[63].server[0] droppedJobsQueue 52149
scalar FogSequentialForward.fog[63].server[0] droppedJobsTimout 0
scalar FogSequentialForward.fog[63].server[0] droppedJobsSLA 934693
scalar FogSequentialForward.fog[63].server[0] droppedJobsTotal 986842
scalar FogSequentialForward.fog[64].dispatcher localJobs 1400361
scalar FogSequentialForward.fog[64].dispatcher internalJobs 1441998
scalar FogSequentialForward.fog[64].dispatcher externalJobs 3498080
scalar FogSequentialForward.fog[64].dispatcher remoteJobs 3496998
scalar FogSequentialForward.fog[64].dispatcher probeQueries 0
scalar FogSequentialForward.fog[64].dispatcher probeAnswers 0
scalar FogSequentialForward.fog[64].dispatcher droppedJobsSLA 42719
scalar FogSequentialForward.fog[64].dispatcher jobs_class_1 4940078
scalar FogSequentialForward.fog[64].dispatcher remoteJobs_class_1 3496998
scalar FogSequentialForward.fog[64].dispatcher localJobs_class_1 1400361
scalar FogSequentialForward.fog[64].dispatcher droppedJobsSLA_class_1 42719
scalar FogSequentialForward.fog[64].server[0] rho 1
scalar FogSequentialForward.fog[64].server[0] congestionRatio 0
scalar FogSequentialForward.fog[64].server[0] totalJobs 1400361
scalar FogSequentialForward.fog[64].server[0] droppedJobsQueue 52298
scalar FogSequentialForward.fog[64].server[0] droppedJobsTimout 0
scalar FogSequentialForward.fog[64].server[0] droppedJobsSLA 934796
scalar FogSequentialForward.fog[64].server[0] droppedJobsTotal 987094
scalar FogSequentialForward.fog[65].dispatcher localJobs 1400909
scalar FogSequentialForward.fog[65].dispatcher internalJobs 1443868
scalar FogSequentialForward.fog[65].dispatcher externalJobs 3496620
scalar FogSequentialForward.fog[65].dispatcher remoteJobs 3497025
scalar FogSequentialForward.fog[65].dispatcher probeQueries 0
scalar FogSequentialForward.fog[65].dispatcher probeAnswers 0
scalar FogSequentialForward.fog[65].dispatcher droppedJobsSLA 42554
[...]
scalar FogSequentialForward.fog[84].dispatcher droppedJobsSLA 42749
scalar FogSequentialForward.fog[84].dispatcher jobs_class_1 4939914
scalar FogSequentialForward.fog[84].dispatcher remoteJobs_class_1 3496625
scalar FogSequentialForward.fog[84].dispatcher localJobs_class_1 1400540
scalar FogSequentialForward.fog[84].dispatcher droppedJobsSLA_class_1 42749
scalar FogSequentialForward.fog[84].server[0] rho 1
scalar FogSequentialForward.fog[84].server[0] congestionRatio 0
scalar FogSequentialForward.fog[84].server[0] totalJobs 1400540
scalar FogSequentialForward.fog[84].server[0] droppedJobsQueue 52394
scalar FogSequentialForward.fog[84].server[0] droppedJobsTimout 0
scalar FogSequentialForward.fog[84].server[0] droppedJobsSLA 934195
scalar FogSequentialForward.fog[84].server[0] droppedJobsTotal 986589
scalar FogSequentialForward.fog[85].dispatcher localJobs 1400382
scalar FogSequentialForward.fog[85].dispatcher internalJobs 1444398
scalar FogSequentialForward.fog[85].dispatcher externalJobs 3499507
scalar FogSequentialForward.fog[85].dispatcher remoteJobs 3501009
scalar FogSequentialForward.fog[85].dispatcher probeQueries 0
scalar FogSequentialForward.fog[85].dispatcher probeAnswers 0
scalar FogSequentialForward.fog[85].dispatcher droppedJobsSLA 42514
scalar FogSequentialForward.fog[85].dispatcher jobs_class_1 4943905
scalar FogSequentialForward.fog[85].dispatcher remoteJobs_class_1 3501009
scalar FogSequentialForward.fog[85].dispatcher localJobs_class_1 1400382
scalar FogSequentialForward.fog[85].dispatcher droppedJobsSLA_class_1 42514
scalar FogSequentialForward.fog[85].server[0] rho 0.99999910593033
scalar FogSequentialForward.fog[85].server[0] congestionRatio 0
scalar FogSequentialForward.fog[85].server[0] totalJobs 1400382
scalar FogSequentialForward.fog[85].server[0] droppedJobsQueue 52579
scalar FogSequentialForward.fog[85].server[0] droppedJobsTimout 0
scalar FogSequentialForward.fog[85].server[0] droppedJobsSLA 934628
scalar FogSequentialForward.fog[85].server[0] droppedJobsTotal 987207
scalar FogSequentialForward.fog[86].dispatcher localJobs 1399912
scalar FogSequentialForward.fog[86].dispatcher internalJobs 1443961
scalar FogSequentialForward.fog[86].dispatcher externalJobs 3496580
scalar FogSequentialForward.fog[86].dispatcher remoteJobs 3497977
scalar FogSequentialForward.fog[86].dispatcher probeQueries 0
scalar FogSequentialForward.fog[86].dispatcher probeAnswers 0
scalar FogSequentialForward.fog[86].dispatcher droppedJobsSLA 42652
scalar FogSequentialForward.fog[86].dispatcher jobs_class_1 4940541
scalar FogSequentialForward.fog[86].dispatcher remoteJobs_class_1 3497977
scalar FogSequentialForward.fog[86].dispatcher localJobs_class_1 1399912
scalar FogSequentialForward.fog[86].dispatcher droppedJobsSLA_class_1 42652
scalar FogSequentialForward.fog[86].server[0] rho 1
scalar FogSequentialForward.fog[86].server[0] congestionRatio 0
scalar FogSequentialForward.fog[86].server[0] totalJobs 1399912
scalar FogSequentialForward.fog[86].server[0] droppedJobsQueue 52342
scalar FogSequentialForward.fog[86].server[0] droppedJobsTimout 0
scalar FogSequentialForward.fog[86].server[0] droppedJobsSLA 934828
scalar FogSequentialForward.fog[86].server[0] droppedJobsTotal 987170
scalar FogSequentialForward.fog[87].dispatcher localJobs 1399814
scalar FogSequentialForward.fog[87].dispatcher internalJobs 1442188
scalar FogSequentialForward.fog[87].dispatcher externalJobs 3494384
scalar FogSequentialForward.fog[87].dispatcher remoteJobs 3494039
scalar FogSequentialForward.fog[87].dispatcher probeQueries 0
scalar FogSequentialForward.fog[87].dispatcher probeAnswers 0
scalar FogSequentialForward.fog[87].dispatcher droppedJobsSLA 42719
scalar FogSequentialForward.fog[87].dispatcher jobs_class_1 4936572
scalar FogSequentialForward.fog[87].dispatcher remoteJobs_class_1 3494039
scalar FogSequentialForward.fog[87].dispatcher localJobs_class_1 1399814
scalar FogSequentialForward.fog[87].dispatcher droppedJobsSLA_class_1 42719
scalar FogSequentialForward.fog[87].server[0] rho 1
scalar FogSequentialForward.fog[87].server[0] congestionRatio 0
scalar FogSequentialForward.fog[87].server[0] totalJobs 1399814
scalar FogSequentialForward.fog[87].server[0] droppedJobsQueue 52350
scalar FogSequentialForward.fog[87].server[0] droppedJobsTimout 0
scalar FogSequentialForward.fog[87].server[0] droppedJobsSLA 934144
scalar FogSequentialForward.fog[87].server[0] droppedJobsTotal 986494
scalar FogSequentialForward.fog[88].dispatcher localJobs 1400748
scalar FogSequentialForward.fog[88].dispatcher internalJobs 1443834
scalar FogSequentialForward.fog[88].dispatcher externalJobs 3497628
scalar FogSequentialForward.fog[88].dispatcher remoteJobs 3498040
scalar FogSequentialForward.fog[88].dispatcher probeQueries 0
scalar FogSequentialForward.fog[88].dispatcher probeAnswers 0
scalar FogSequentialForward.fog[88].dispatcher droppedJobsSLA 42674
scalar FogSequentialForward.fog[88].dispatcher jobs_class_1 4941462
scalar FogSequentialForward.fog[88].dispatcher remoteJobs_class_1 3498040
scalar FogSequentialForward.fog[88].dispatcher localJobs_class_1 1400748
scalar FogSequentialForward.fog[88].dispatcher droppedJobsSLA_class_1 42674
scalar FogSequentialForward.fog[88].server[0] rho 1
scalar FogSequentialForward.fog[88].server[0] congestionRatio 0
scalar FogSequentialForward.fog[88].server[0] totalJobs 1400748
scalar FogSequentialForward.fog[88].server[0] droppedJobsQueue 52699
scalar FogSequentialForward.fog[88].server[0] droppedJobsTimout 0
scalar FogSequentialForward.fog[88].server[0] droppedJobsSLA 934791
scalar FogSequentialForward.fog[88].server[0] droppedJobsTotal 987490
scalar FogSequentialForward.fog[89].dispatcher localJobs 1400305
scalar FogSequentialForward.fog[89].dispatcher internalJobs 1442278
scalar FogSequentialForward.fog[89].dispatcher externalJobs 3498344
scalar FogSequentialForward.fog[89].dispatcher remoteJobs 3497526
scalar FogSequentialForward.fog[89].dispatcher probeQueries 0
scalar FogSequentialForward.fog[89].dispatcher probeAnswers 0
scalar FogSequentialForward.fog[89].dispatcher droppedJobsSLA 42791
scalar FogSequentialForward.fog[89].dispatcher jobs_class_1 4940622
scalar FogSequentialForward.fog[89].dispatcher remoteJobs_class_1 3497526
scalar FogSequentialForward.fog[89].dispatcher localJobs_class_1 1400305
scalar FogSequentialForward.fog[89].dispatcher droppedJobsSLA_class_1 42791
scalar FogSequentialForward.fog[89].server[0] rho 1
scalar FogSequentialForward.fog[89].server[0] congestionRatio 0
scalar FogSequentialForward.fog[89].server[0] totalJobs 1400305
scalar FogSequentialForward.fog[89].server[0] droppedJobsQueue 52303
scalar FogSequentialForward.fog[89].server[0] droppedJobsTimout 0
scalar FogSequentialForward.fog[89].server[0] droppedJobsSLA 934198
scalar FogSequentialForward.fog[89].server[0] droppedJobsTotal 986501
scalar FogSequentialForward.fog[90].dispatcher localJobs 1401781
scalar FogSequentialForward.fog[90].dispatcher internalJobs 1442533
scalar FogSequentialForward.fog[90].dispatcher externalJobs 3498046
scalar FogSequentialForward.fog[90].dispatcher remoteJobs 3496172
scalar FogSequentialForward.fog[90].dispatcher probeQueries 0
scalar FogSequentialForward.fog[90].dispatcher probeAnswers 0
scalar FogSequentialForward.fog[90].dispatcher droppedJobsSLA 42626
scalar FogSequentialForward.fog[90].dispatcher jobs_class_1 4940579
scalar FogSequentialForward.fog[90].dispatcher remoteJobs_class_1 3496172
scalar FogSequentialForward.fog[90].dispatcher localJobs_class_1 1401781
scalar FogSequentialForward.fog[90].dispatcher droppedJobsSLA_class_1 42626
scalar FogSequentialForward.fog[90].server[0] rho 1
scalar FogSequentialForward.fog[90].server[0] congestionRatio 0
scalar FogSequentialForward.fog[90].server[0] totalJobs 1401781
scalar FogSequentialForward.fog[90].server[0] droppedJobsQueue 52738
scalar FogSequentialForward.fog[90].server[0] droppedJobsTimout 0
scalar FogSequentialForward.fog[90].server[0] droppedJobsSLA 935151
scalar FogSequentialForward.fog[90].server[0] droppedJobsTotal 987889
scalar FogSequentialForward.fog[91].dispatcher localJobs 1400039
scalar FogSequentialForward.fog[91].dispatcher internalJobs 1446190
scalar FogSequentialForward.fog[91].dispatcher externalJobs 3495617
scalar FogSequentialForward.fog[91].dispatcher remoteJobs 3498969
scalar FogSequentialForward.fog[91].dispatcher probeQueries 0
scalar FogSequentialForward.fog[91].dispatcher probeAnswers 0
scalar FogSequentialForward.fog[91].dispatcher droppedJobsSLA 42799
scalar FogSequentialForward.fog[91].dispatcher jobs_class_1 4941807
scalar FogSequentialForward.fog[91].dispatcher remoteJobs_class_1 3498969
scalar FogSequentialForward.fog[91].dispatcher localJobs_class_1 1400039
scalar FogSequentialForward.fog[91].dispatcher droppedJobsSLA_class_1 42799
scalar FogSequentialForward.fog[91].server[0] rho 0.99999970197678
scalar FogSequentialForward.fog[91].server[0] congestionRatio 0
scalar FogSequentialForward.fog[91].server[0] totalJobs 1400039
scalar FogSequentialForward.fog[91].server[0] droppedJobsQueue 52436
scalar FogSequentialForward.fog[91].server[0] droppedJobsTimout 0
scalar FogSequentialForward.fog[91].server[0] droppedJobsSLA 934043
scalar FogSequentialForward.fog[91].server[0] droppedJobsTotal 986479
scalar FogSequentialForward.fog[92].dispatcher localJobs 1399537
scalar FogSequentialForward.fog[92].dispatcher internalJobs 1443487
scalar FogSequentialForward.fog[92].dispatcher externalJobs 3495653
scalar FogSequentialForward.fog[92].dispatcher remoteJobs 3497013
scalar FogSequentialForward.fog[92].dispatcher probeQueries 0
scalar FogSequentialForward.fog[92].dispatcher probeAnswers 0
scalar FogSequentialForward.fog[92].dispatcher droppedJobsSLA 42590
scalar FogSequentialForward.fog[92].dispatcher jobs_class_1 4939140
scalar FogSequentialForward.fog[92].dispatcher remoteJobs_class_1 3497013
scalar FogSequentialForward.fog[92].dispatcher localJobs_class_1 1399537
scalar FogSequentialForward.fog[92].dispatcher droppedJobsSLA_class_1 42590
scalar FogSequentialForward.fog[92].server[0] rho 1
scalar FogSequentialForward.fog[92].server[0] congestionRatio 0
scalar FogSequentialForward.fog[92].server[0] totalJobs 1399537
scalar FogSequentialForward.fog[92].server[0] droppedJobsQueue 52095
scalar FogSequentialForward.fog[92].server[0] droppedJobsTimout 0
scalar FogSequentialForward.fog[92].server[0] droppedJobsSLA 933857
scalar FogSequentialForward.fog[92].server[0] droppedJobsTotal 985952
scalar FogSequentialForward.fog[93].dispatcher localJobs 1399296
scalar FogSequentialForward.fog[93].dispatcher internalJobs 1444148
scalar FogSequentialForward.fog[93].dispatcher externalJobs 3494221
scalar FogSequentialForward.fog[93].dispatcher remoteJobs 3496254
scalar FogSequentialForward.fog[93].dispatcher probeQueries 0
scalar FogSequentialForward.fog[93].dispatcher probeAnswers 0
scalar FogSequentialForward.fog[93].dispatcher droppedJobsSLA 42819
scalar FogSequentialForward.fog[93].dispatcher jobs_class_1 4938369
scalar FogSequentialForward.fog[93].dispatcher remoteJobs_class_1 3496254
scalar FogSequentialForward.fog[93].dispatcher localJobs_class_1 1399296
scalar FogSequentialForward.fog[93].dispatcher droppedJobsSLA_class_1 42819
scalar FogSequentialForward.fog[93].server[0] rho 1
scalar FogSequentialForward.fog[93].server[0] congestionRatio 0
scalar FogSequentialForward.fog[93].server[0] totalJobs 1399296
scalar FogSequentialForward.fog[93].server[0] droppedJobsQueue 52086
scalar FogSequentialForward.fog[93].server[0] droppedJobsTimout 0
scalar FogSequentialForward.fog[93].server[0] droppedJobsSLA 934639
scalar FogSequentialForward.fog[93].server[0] droppedJobsTotal 986725
scalar FogSequentialForward.fog[94].dispatcher localJobs 1400317
scalar FogSequentialForward.fog[94].dispatcher internalJobs 1443557
scalar FogSequentialForward.fog[94].dispatcher externalJobs 3498080
scalar FogSequentialForward.fog[94].dispatcher remoteJobs 3498309
scalar FogSequentialForward.fog[94].dispatcher probeQueries 0
scalar FogSequentialForward.fog[94].dispatcher probeAnswers 0
scalar FogSequentialForward.fog[94].dispatcher droppedJobsSLA 43011
scalar FogSequentialForward.fog[94].dispatcher jobs_class_1 4941637
scalar FogSequentialForward.fog[94].dispatcher remoteJobs_class_1 3498309
scalar FogSequentialForward.fog[94].dispatcher localJobs_class_1 1400317
scalar FogSequentialForward.fog[94].dispatcher droppedJobsSLA_class_1 43011
scalar FogSequentialForward.fog[94].server[0] rho 1
scalar FogSequentialForward.fog[94].server[0] congestionRatio 0
scalar FogSequentialForward.fog[94].server[0] totalJobs 1400317
scalar FogSequentialForward.fog[94].server[0] droppedJobsQueue 52240
scalar FogSequentialForward.fog[94].server[0] droppedJobsTimout 0
scalar FogSequentialForward.fog[94].server[0] droppedJobsSLA 934682
scalar FogSequentialForward.fog[94].server[0] droppedJobsTotal 986922
scalar FogSequentialForward.fog[95].dispatcher localJobs 1400389
scalar FogSequentialForward.fog[95].dispatcher internalJobs 1443054
scalar FogSequentialForward.fog[95].dispatcher externalJobs 3495266
scalar FogSequentialForward.fog[95].dispatcher remoteJobs 3495665
scalar FogSequentialForward.fog[95].dispatcher probeQueries 0
scalar FogSequentialForward.fog[95].dispatcher probeAnswers 0
scalar FogSequentialForward.fog[95].dispatcher droppedJobsSLA 42266
scalar FogSequentialForward.fog[95].dispatcher jobs_class_1 4938320
scalar FogSequentialForward.fog[95].dispatcher remoteJobs_class_1 3495665
scalar FogSequentialForward.fog[95].dispatcher localJobs_class_1 1400389
scalar FogSequentialForward.fog[95].dispatcher droppedJobsSLA_class_1 42266
scalar FogSequentialForward.fog[95].server[0] rho 1
scalar FogSequentialForward.fog[95].server[0] congestionRatio 0
scalar FogSequentialForward.fog[95].server[0] totalJobs 1400389
scalar FogSequentialForward.fog[95].server[0] droppedJobsQueue 52269
scalar FogSequentialForward.fog[95].server[0] droppedJobsTimout 0
scalar FogSequentialForward.fog[95].server[0] droppedJobsSLA 934780
scalar FogSequentialForward.fog[95].server[0] droppedJobsTotal 987049
scalar FogSequentialForward.fog[96].dispatcher localJobs 1399606
scalar FogSequentialForward.fog[96].dispatcher internalJobs 1441762
scalar FogSequentialForward.fog[96].dispatcher externalJobs 3494672
scalar FogSequentialForward.fog[96].dispatcher remoteJobs 3493841
scalar FogSequentialForward.fog[96].dispatcher probeQueries 0
scalar FogSequentialForward.fog[96].dispatcher probeAnswers 0
scalar FogSequentialForward.fog[96].dispatcher droppedJobsSLA 42987
scalar FogSequentialForward.fog[96].dispatcher jobs_class_1 4936434
scalar FogSequentialForward.fog[96].dispatcher remoteJobs_class_1 3493841
scalar FogSequentialForward.fog[96].dispatcher localJobs_class_1 1399606
scalar FogSequentialForward.fog[96].dispatcher droppedJobsSLA_class_1 42987
scalar FogSequentialForward.fog[96].server[0] rho 1
scalar FogSequentialForward.fog[96].server[0] congestionRatio 0
scalar FogSequentialForward.fog[96].server[0] totalJobs 1399606
scalar FogSequentialForward.fog[96].server[0] droppedJobsQueue 52119
scalar FogSequentialForward.fog[96].server[0] droppedJobsTimout 0
scalar FogSequentialForward.fog[96].server[0] droppedJobsSLA 934006
scalar FogSequentialForward.fog[96].server[0] droppedJobsTotal 986125
scalar FogSequentialForward.fog[97].dispatcher localJobs 1400588
scalar FogSequentialForward.fog[97].dispatcher internalJobs 1445339
scalar FogSequentialForward.fog[97].dispatcher externalJobs 3497781
scalar FogSequentialForward.fog[97].dispatcher remoteJobs 3499559
scalar FogSequentialForward.fog[97].dispatcher probeQueries 0
scalar FogSequentialForward.fog[97].dispatcher probeAnswers 0
scalar FogSequentialForward.fog[97].dispatcher droppedJobsSLA 42973
scalar FogSequentialForward.fog[97].dispatcher jobs_class_1 4943120
scalar FogSequentialForward.fog[97].dispatcher remoteJobs_class_1 3499559
scalar FogSequentialForward.fog[97].dispatcher localJobs_class_1 1400588
scalar FogSequentialForward.fog[97].dispatcher droppedJobsSLA_class_1 42973
scalar FogSequentialForward.fog[97].server[0] rho 1
scalar FogSequentialForward.fog[97].server[0] congestionRatio 0
scalar FogSequentialForward.fog[97].server[0] totalJobs 1400588
scalar FogSequentialForward.fog[97].server[0] droppedJobsQueue 52595
scalar FogSequentialForward.fog[97].server[0] droppedJobsTimout 0
scalar FogSequentialForward.fog[97].server[0] droppedJobsSLA 933741
scalar FogSequentialForward.fog[97].server[0] droppedJobsTotal 986336
scalar FogSequentialForward.fog[98].dispatcher localJobs 1400093
scalar FogSequentialForward.fog[98].dispatcher internalJobs 1443825
scalar FogSequentialForward.fog[98].dispatcher externalJobs 3498837
scalar FogSequentialForward.fog[98].dispatcher remoteJobs 3499662
scalar FogSequentialForward.fog[98].dispatcher probeQueries 0
scalar FogSequentialForward.fog[98].dispatcher probeAnswers 0
scalar FogSequentialForward.fog[98].dispatcher droppedJobsSLA 42907
scalar FogSequentialForward.fog[98].dispatcher jobs_class_1 4942662
scalar FogSequentialForward.fog[98].dispatcher remoteJobs_class_1 3499662
scalar FogSequentialForward.fog[98].dispatcher localJobs_class_1 1400093
scalar FogSequentialForward.fog[98].dispatcher droppedJobsSLA_class_1 42907
scalar FogSequentialForward.fog[98].server[0] rho 1
scalar FogSequentialForward.fog[98].server[0] congestionRatio 0
scalar FogSequentialForward.fog[98].server[0] totalJobs 1400093
scalar FogSequentialForward.fog[98].server[0] droppedJobsQueue 52443
scalar FogSequentialForward.fog[98].server[0] droppedJobsTimout 0
scalar FogSequentialForward.fog[98].server[0] droppedJobsSLA 933878
scalar FogSequentialForward.fog[98].server[0] droppedJobsTotal 986321
scalar FogSequentialForward.fog[99].dispatcher localJobs 1400644
scalar FogSequentialForward.fog[99].dispatcher internalJobs 1443207
scalar FogSequentialForward.fog[99].dispatcher externalJobs 3497007
scalar FogSequentialForward.fog[99].dispatcher remoteJobs 3497205
scalar FogSequentialForward.fog[99].dispatcher probeQueries 0
scalar FogSequentialForward.fog[99].dispatcher probeAnswers 0
scalar FogSequentialForward.fog[99].dispatcher droppedJobsSLA 42365
scalar FogSequentialForward.fog[99].dispatcher jobs_class_1 4940214
scalar FogSequentialForward.fog[99].dispatcher remoteJobs_class_1 3497205
scalar FogSequentialForward.fog[99].dispatcher localJobs_class_1 1400644
scalar FogSequentialForward.fog[99].dispatcher droppedJobsSLA_class_1 42365
scalar FogSequentialForward.fog[99].server[0] rho 1
scalar FogSequentialForward.fog[99].server[0] congestionRatio 0
scalar FogSequentialForward.fog[99].server[0] totalJobs 1400644
scalar FogSequentialForward.fog[99].server[0] droppedJobsQueue 52559
scalar FogSequentialForward.fog[99].server[0] droppedJobsTimout 0
scalar FogSequentialForward.fog[99].server[0] droppedJobsSLA 935101
scalar FogSequentialForward.fog[99].server[0] droppedJobsTotal 987660
scalar FogSequentialForward.sink avg_responseTime_1 0.14657301161584
scalar FogSequentialForward.sink p90_responseTime_1 0.016021609736
scalar FogSequentialForward.sink med_responseTime_1 0.016021609736
scalar FogSequentialForward.sink avg_delayTime_1 0
scalar FogSequentialForward.sink p90_delayTime_1 0
scalar FogSequentialForward.sink med_delayTime_1 0
scalar FogSequentialForward.sink avg_queuingTime_1 0.12119247362845
scalar FogSequentialForward.sink p90_queuingTime_1 0
scalar FogSequentialForward.sink med_queuingTime_1 0
scalar FogSequentialForward.sink avg_serviceTime_1 0.016737697815018
scalar FogSequentialForward.sink p90_serviceTime_1 0.014655574577
scalar FogSequentialForward.sink med_serviceTime_1 0.014655574577
scalar FogSequentialForward.sink avg_balancerTime_1 0.0086428401709093
scalar FogSequentialForward.sink p90_balancerTime_1 0
scalar FogSequentialForward.sink med_balancerTime_1 0
scalar FogSequentialForward.sink avg_balancerCount_1 1.5175353396593
scalar FogSequentialForward.sink p90_balancerCount_1 1
scalar FogSequentialForward.sink med_balancerCount_1 1

