version 2
run Fog-mul_001-rho_02-thr_9-2-20190712-20:08:03-3115
attr configname Fog-mul_001-rho_02-thr_9
attr datetime 20190712-20:08:03
attr experiment Fog-mul_001-rho_02-thr_9
attr inifile FogSequentialForward.ini
attr iterationvars ""
attr iterationvarsf ""
attr measurement ""
attr network FogSequentialForward
attr processid 3115
attr repetition 2
attr replication #2
attr resultdir results
attr runnumber 2
attr seedset 2
param FogSequentialForward.proctimeMul 0.01
param FogSequentialForward.rho 0.2
param FogSequentialForward.fog[*].dispatcher.thr 9
param FogSequentialForward.nSources 100
param FogSequentialForward.rho 0.9
param FogSequentialForward.proctimeMul 1.0
param FogSequentialForward.source[*].appId 1
param FogSequentialForward.source[*].realTime true
param FogSequentialForward.source[*].multiHop true
param FogSequentialForward.fog[*].nServers 1
param FogSequentialForward.fog[*].dispatcher.fanOut 1
param FogSequentialForward.fog[*].server[*].timeSlice -1s
param FogSequentialForward.fog[*].server[*].timeout -1s
param FogSequentialForward.fog[*].server[*].capacity 20
param FogSequentialForward.fog[*].server[*].fifo true
param FogSequentialForward.fog[*].server[*].maxServiceTime -1s
param FogSequentialForward.fog[*].dispatcher.thr 1

scalar FogSequentialForward.fog[0].dispatcher localJobs 360726
scalar FogSequentialForward.fog[0].dispatcher internalJobs 360716
scalar FogSequentialForward.fog[0].dispatcher externalJobs 34
scalar FogSequentialForward.fog[0].dispatcher remoteJobs 24
scalar FogSequentialForward.fog[0].dispatcher probeQueries 0
scalar FogSequentialForward.fog[0].dispatcher probeAnswers 0
scalar FogSequentialForward.fog[0].dispatcher droppedJobsSLA 0
scalar FogSequentialForward.fog[0].dispatcher jobs_class_1 360750
scalar FogSequentialForward.fog[0].dispatcher remoteJobs_class_1 24
scalar FogSequentialForward.fog[0].dispatcher localJobs_class_1 360726
scalar FogSequentialForward.fog[0].server[0] rho 0.55779904127121
scalar FogSequentialForward.fog[0].server[0] congestionRatio 0
scalar FogSequentialForward.fog[0].server[0] totalJobs 360726
scalar FogSequentialForward.fog[0].server[0] droppedJobsQueue 0
scalar FogSequentialForward.fog[0].server[0] droppedJobsTimout 0
scalar FogSequentialForward.fog[0].server[0] droppedJobsSLA 0
scalar FogSequentialForward.fog[0].server[0] droppedJobsTotal 0
scalar FogSequentialForward.fog[1].dispatcher localJobs 360971
scalar FogSequentialForward.fog[1].dispatcher internalJobs 360955
scalar FogSequentialForward.fog[1].dispatcher externalJobs 42
scalar FogSequentialForward.fog[1].dispatcher remoteJobs 26
scalar FogSequentialForward.fog[1].dispatcher probeQueries 0
scalar FogSequentialForward.fog[1].dispatcher probeAnswers 0
scalar FogSequentialForward.fog[1].dispatcher droppedJobsSLA 0
scalar FogSequentialForward.fog[1].dispatcher jobs_class_1 360997
scalar FogSequentialForward.fog[1].dispatcher remoteJobs_class_1 26
scalar FogSequentialForward.fog[1].dispatcher localJobs_class_1 360971
scalar FogSequentialForward.fog[1].server[0] rho 0.55815666913986
scalar FogSequentialForward.fog[1].server[0] congestionRatio 0
scalar FogSequentialForward.fog[1].server[0] totalJobs 360971
scalar FogSequentialForward.fog[1].server[0] droppedJobsQueue 0
scalar FogSequentialForward.fog[1].server[0] droppedJobsTimout 0
scalar FogSequentialForward.fog[1].server[0] droppedJobsSLA 1
scalar FogSequentialForward.fog[1].server[0] droppedJobsTotal 1
scalar FogSequentialForward.fog[2].dispatcher localJobs 359045
scalar FogSequentialForward.fog[2].dispatcher internalJobs 359033
scalar FogSequentialForward.fog[2].dispatcher externalJobs 39
scalar FogSequentialForward.fog[2].dispatcher remoteJobs 27
scalar FogSequentialForward.fog[2].dispatcher probeQueries 0
scalar FogSequentialForward.fog[2].dispatcher probeAnswers 0
scalar FogSequentialForward.fog[2].dispatcher droppedJobsSLA 0
scalar FogSequentialForward.fog[2].dispatcher jobs_class_1 359072
scalar FogSequentialForward.fog[2].dispatcher remoteJobs_class_1 27
scalar FogSequentialForward.fog[2].dispatcher localJobs_class_1 359045
scalar FogSequentialForward.fog[2].server[0] rho 0.55522620677948
scalar FogSequentialForward.fog[2].server[0] congestionRatio 0
scalar FogSequentialForward.fog[2].server[0] totalJobs 359045
scalar FogSequentialForward.fog[2].server[0] droppedJobsQueue 0
scalar FogSequentialForward.fog[2].server[0] droppedJobsTimout 0
scalar FogSequentialForward.fog[2].server[0] droppedJobsSLA 1
scalar FogSequentialForward.fog[2].server[0] droppedJobsTotal 1
scalar FogSequentialForward.fog[3].dispatcher localJobs 360891
scalar FogSequentialForward.fog[3].dispatcher internalJobs 360891
scalar FogSequentialForward.fog[3].dispatcher externalJobs 37
scalar FogSequentialForward.fog[3].dispatcher remoteJobs 37
scalar FogSequentialForward.fog[3].dispatcher probeQueries 0
scalar FogSequentialForward.fog[3].dispatcher probeAnswers 0
scalar FogSequentialForward.fog[3].dispatcher droppedJobsSLA 0
scalar FogSequentialForward.fog[3].dispatcher jobs_class_1 360928
scalar FogSequentialForward.fog[3].dispatcher remoteJobs_class_1 37
scalar FogSequentialForward.fog[3].dispatcher localJobs_class_1 360891
scalar FogSequentialForward.fog[3].server[0] rho 0.55804121494293
scalar FogSequentialForward.fog[3].server[0] congestionRatio 0
scalar FogSequentialForward.fog[3].server[0] totalJobs 360891
scalar FogSequentialForward.fog[3].server[0] droppedJobsQueue 0
scalar FogSequentialForward.fog[3].server[0] droppedJobsTimout 0
scalar FogSequentialForward.fog[3].server[0] droppedJobsSLA 1
scalar FogSequentialForward.fog[3].server[0] droppedJobsTotal 1
scalar FogSequentialForward.fog[4].dispatcher localJobs 360171
scalar FogSequentialForward.fog[4].dispatcher internalJobs 360158
scalar FogSequentialForward.fog[4].dispatcher externalJobs 45
scalar FogSequentialForward.fog[4].dispatcher remoteJobs 32
scalar FogSequentialForward.fog[4].dispatcher probeQueries 0
scalar FogSequentialForward.fog[4].dispatcher probeAnswers 0
scalar FogSequentialForward.fog[4].dispatcher droppedJobsSLA 0
scalar FogSequentialForward.fog[4].dispatcher jobs_class_1 360203
scalar FogSequentialForward.fog[4].dispatcher remoteJobs_class_1 32
scalar FogSequentialForward.fog[4].dispatcher localJobs_class_1 360171
scalar FogSequentialForward.fog[4].server[0] rho 0.55692845582962
scalar FogSequentialForward.fog[4].server[0] congestionRatio 0
scalar FogSequentialForward.fog[4].server[0] totalJobs 360171
scalar FogSequentialForward.fog[4].server[0] droppedJobsQueue 0
scalar FogSequentialForward.fog[4].server[0] droppedJobsTimout 0
scalar FogSequentialForward.fog[4].server[0] droppedJobsSLA 1
scalar FogSequentialForward.fog[4].server[0] droppedJobsTotal 1
scalar FogSequentialForward.fog[5].dispatcher localJobs 360650
scalar FogSequentialForward.fog[5].dispatcher internalJobs 360669
scalar FogSequentialForward.fog[5].dispatcher externalJobs 25
scalar FogSequentialForward.fog[5].dispatcher remoteJobs 44
scalar FogSequentialForward.fog[5].dispatcher probeQueries 0
scalar FogSequentialForward.fog[5].dispatcher probeAnswers 0
scalar FogSequentialForward.fog[5].dispatcher droppedJobsSLA 0
scalar FogSequentialForward.fog[5].dispatcher jobs_class_1 360694
scalar FogSequentialForward.fog[5].dispatcher remoteJobs_class_1 44
scalar FogSequentialForward.fog[5].dispatcher localJobs_class_1 360650
scalar FogSequentialForward.fog[5].server[0] rho 0.55768644809723
scalar FogSequentialForward.fog[5].server[0] congestionRatio 0
scalar FogSequentialForward.fog[5].server[0] totalJobs 360650
scalar FogSequentialForward.fog[5].server[0] droppedJobsQueue 0
scalar FogSequentialForward.fog[5].server[0] droppedJobsTimout 0
scalar FogSequentialForward.fog[5].server[0] droppedJobsSLA 2
scalar FogSequentialForward.fog[5].server[0] droppedJobsTotal 2
scalar FogSequentialForward.fog[6].dispatcher localJobs 362061
scalar FogSequentialForward.fog[6].dispatcher internalJobs 362061
scalar FogSequentialForward.fog[6].dispatcher externalJobs 31
scalar FogSequentialForward.fog[6].dispatcher remoteJobs 31
scalar FogSequentialForward.fog[6].dispatcher probeQueries 0
scalar FogSequentialForward.fog[6].dispatcher probeAnswers 0
scalar FogSequentialForward.fog[6].dispatcher droppedJobsSLA 0
scalar FogSequentialForward.fog[6].dispatcher jobs_class_1 362092
scalar FogSequentialForward.fog[6].dispatcher remoteJobs_class_1 31
scalar FogSequentialForward.fog[6].dispatcher localJobs_class_1 362061
scalar FogSequentialForward.fog[6].server[0] rho 0.55984216928482
scalar FogSequentialForward.fog[6].server[0] congestionRatio 0
scalar FogSequentialForward.fog[6].server[0] totalJobs 362061
scalar FogSequentialForward.fog[6].server[0] droppedJobsQueue 0
scalar FogSequentialForward.fog[6].server[0] droppedJobsTimout 0
scalar FogSequentialForward.fog[6].server[0] droppedJobsSLA 0
scalar FogSequentialForward.fog[6].server[0] droppedJobsTotal 0
scalar FogSequentialForward.fog[7].dispatcher localJobs 360803
scalar FogSequentialForward.fog[7].dispatcher internalJobs 360816
scalar FogSequentialForward.fog[7].dispatcher externalJobs 27
scalar FogSequentialForward.fog[7].dispatcher remoteJobs 40
scalar FogSequentialForward.fog[7].dispatcher probeQueries 0
scalar FogSequentialForward.fog[7].dispatcher probeAnswers 0
scalar FogSequentialForward.fog[7].dispatcher droppedJobsSLA 0
scalar FogSequentialForward.fog[7].dispatcher jobs_class_1 360843
scalar FogSequentialForward.fog[7].dispatcher remoteJobs_class_1 40
scalar FogSequentialForward.fog[7].dispatcher localJobs_class_1 360803
scalar FogSequentialForward.fog[7].server[0] rho 0.55792534351349
scalar FogSequentialForward.fog[7].server[0] congestionRatio 0
scalar FogSequentialForward.fog[7].server[0] totalJobs 360803
scalar FogSequentialForward.fog[7].server[0] droppedJobsQueue 0
scalar FogSequentialForward.fog[7].server[0] droppedJobsTimout 0
scalar FogSequentialForward.fog[7].server[0] droppedJobsSLA 0
scalar FogSequentialForward.fog[7].server[0] droppedJobsTotal 0
scalar FogSequentialForward.fog[8].dispatcher localJobs 360680
scalar FogSequentialForward.fog[8].dispatcher internalJobs 360671
scalar FogSequentialForward.fog[8].dispatcher externalJobs 38
scalar FogSequentialForward.fog[8].dispatcher remoteJobs 29
scalar FogSequentialForward.fog[8].dispatcher probeQueries 0
scalar FogSequentialForward.fog[8].dispatcher probeAnswers 0
scalar FogSequentialForward.fog[8].dispatcher droppedJobsSLA 0
scalar FogSequentialForward.fog[8].dispatcher jobs_class_1 360709
scalar FogSequentialForward.fog[8].dispatcher remoteJobs_class_1 29
scalar FogSequentialForward.fog[8].dispatcher localJobs_class_1 360680
scalar FogSequentialForward.fog[8].server[0] rho 0.55774629116058
scalar FogSequentialForward.fog[8].server[0] congestionRatio 0
scalar FogSequentialForward.fog[8].server[0] totalJobs 360680
scalar FogSequentialForward.fog[8].server[0] droppedJobsQueue 0
scalar FogSequentialForward.fog[8].server[0] droppedJobsTimout 0
scalar FogSequentialForward.fog[8].server[0] droppedJobsSLA 0
scalar FogSequentialForward.fog[8].server[0] droppedJobsTotal 0
scalar FogSequentialForward.fog[9].dispatcher localJobs 360386
scalar FogSequentialForward.fog[9].dispatcher internalJobs 360379
scalar FogSequentialForward.fog[9].dispatcher externalJobs 37
scalar FogSequentialForward.fog[9].dispatcher remoteJobs 30
scalar FogSequentialForward.fog[9].dispatcher probeQueries 0
scalar FogSequentialForward.fog[9].dispatcher probeAnswers 0
scalar FogSequentialForward.fog[9].dispatcher droppedJobsSLA 0
scalar FogSequentialForward.fog[9].dispatcher jobs_class_1 360416
scalar FogSequentialForward.fog[9].dispatcher remoteJobs_class_1 30
scalar FogSequentialForward.fog[9].dispatcher localJobs_class_1 360386
scalar FogSequentialForward.fog[9].server[0] rho 0.55726879835129
scalar FogSequentialForward.fog[9].server[0] congestionRatio 0
scalar FogSequentialForward.fog[9].server[0] totalJobs 360386
scalar FogSequentialForward.fog[9].server[0] droppedJobsQueue 0
scalar FogSequentialForward.fog[9].server[0] droppedJobsTimout 0
scalar FogSequentialForward.fog[9].server[0] droppedJobsSLA 0
scalar FogSequentialForward.fog[9].server[0] droppedJobsTotal 0
scalar FogSequentialForward.fog[10].dispatcher localJobs 360805
scalar FogSequentialForward.fog[10].dispatcher internalJobs 360807
scalar FogSequentialForward.fog[10].dispatcher externalJobs 29
scalar FogSequentialForward.fog[10].dispatcher remoteJobs 31
scalar FogSequentialForward.fog[10].dispatcher probeQueries 0
scalar FogSequentialForward.fog[10].dispatcher probeAnswers 0
scalar FogSequentialForward.fog[10].dispatcher droppedJobsSLA 0
scalar FogSequentialForward.fog[10].dispatcher jobs_class_1 360836
scalar FogSequentialForward.fog[10].dispatcher remoteJobs_class_1 31
scalar FogSequentialForward.fog[10].dispatcher localJobs_class_1 360805
scalar FogSequentialForward.fog[10].server[0] rho 0.55790674686432
scalar FogSequentialForward.fog[10].server[0] congestionRatio 0
scalar FogSequentialForward.fog[10].server[0] totalJobs 360805
scalar FogSequentialForward.fog[10].server[0] droppedJobsQueue 0
scalar FogSequentialForward.fog[10].server[0] droppedJobsTimout 0
scalar FogSequentialForward.fog[10].server[0] droppedJobsSLA 1
scalar FogSequentialForward.fog[10].server[0] droppedJobsTotal 1
scalar FogSequentialForward.fog[11].dispatcher localJobs 360560
scalar FogSequentialForward.fog[11].dispatcher internalJobs 360554
scalar FogSequentialForward.fog[11].dispatcher externalJobs 46
scalar FogSequentialForward.fog[11].dispatcher remoteJobs 40
scalar FogSequentialForward.fog[11].dispatcher probeQueries 0
scalar FogSequentialForward.fog[11].dispatcher probeAnswers 0
scalar FogSequentialForward.fog[11].dispatcher droppedJobsSLA 0
scalar FogSequentialForward.fog[11].dispatcher jobs_class_1 360600
scalar FogSequentialForward.fog[11].dispatcher remoteJobs_class_1 40
scalar FogSequentialForward.fog[11].dispatcher localJobs_class_1 360560
scalar FogSequentialForward.fog[11].server[0] rho 0.55752825737
scalar FogSequentialForward.fog[11].server[0] congestionRatio 0
scalar FogSequentialForward.fog[11].server[0] totalJobs 360560
scalar FogSequentialForward.fog[11].server[0] droppedJobsQueue 0
scalar FogSequentialForward.fog[11].server[0] droppedJobsTimout 0
scalar FogSequentialForward.fog[11].server[0] droppedJobsSLA 1
scalar FogSequentialForward.fog[11].server[0] droppedJobsTotal 1
scalar FogSequentialForward.fog[12].dispatcher localJobs 360945
scalar FogSequentialForward.fog[12].dispatcher internalJobs 360958
scalar FogSequentialForward.fog[12].dispatcher externalJobs 28
scalar FogSequentialForward.fog[12].dispatcher remoteJobs 41
scalar FogSequentialForward.fog[12].dispatcher probeQueries 0
scalar FogSequentialForward.fog[12].dispatcher probeAnswers 0
scalar FogSequentialForward.fog[12].dispatcher droppedJobsSLA 0
scalar FogSequentialForward.fog[12].dispatcher jobs_class_1 360986
scalar FogSequentialForward.fog[12].dispatcher remoteJobs_class_1 41
scalar FogSequentialForward.fog[12].dispatcher localJobs_class_1 360945
scalar FogSequentialForward.fog[12].server[0] rho 0.55811536312103
scalar FogSequentialForward.fog[12].server[0] congestionRatio 0
scalar FogSequentialForward.fog[12].server[0] totalJobs 360945
scalar FogSequentialForward.fog[12].server[0] droppedJobsQueue 0
scalar FogSequentialForward.fog[12].server[0] droppedJobsTimout 0
scalar FogSequentialForward.fog[12].server[0] droppedJobsSLA 2
scalar FogSequentialForward.fog[12].server[0] droppedJobsTotal 2
scalar FogSequentialForward.fog[13].dispatcher localJobs 360742
scalar FogSequentialForward.fog[13].dispatcher internalJobs 360764
scalar FogSequentialForward.fog[13].dispatcher externalJobs 28
scalar FogSequentialForward.fog[13].dispatcher remoteJobs 50
scalar FogSequentialForward.fog[13].dispatcher probeQueries 0
scalar FogSequentialForward.fog[13].dispatcher probeAnswers 0
scalar FogSequentialForward.fog[13].dispatcher droppedJobsSLA 0
scalar FogSequentialForward.fog[13].dispatcher jobs_class_1 360792
scalar FogSequentialForward.fog[13].dispatcher remoteJobs_class_1 50
scalar FogSequentialForward.fog[13].dispatcher localJobs_class_1 360742
scalar FogSequentialForward.fog[13].server[0] rho 0.55779361724854
scalar FogSequentialForward.fog[13].server[0] congestionRatio 0
scalar FogSequentialForward.fog[13].server[0] totalJobs 360742
scalar FogSequentialForward.fog[13].server[0] droppedJobsQueue 0
scalar FogSequentialForward.fog[13].server[0] droppedJobsTimout 0
scalar FogSequentialForward.fog[13].server[0] droppedJobsSLA 0
scalar FogSequentialForward.fog[13].server[0] droppedJobsTotal 0
scalar FogSequentialForward.fog[14].dispatcher localJobs 361859
scalar FogSequentialForward.fog[14].dispatcher internalJobs 361874
scalar FogSequentialForward.fog[14].dispatcher externalJobs 38
scalar FogSequentialForward.fog[14].dispatcher remoteJobs 53
scalar FogSequentialForward.fog[14].dispatcher probeQueries 0
scalar FogSequentialForward.fog[14].dispatcher probeAnswers 0
scalar FogSequentialForward.fog[14].dispatcher droppedJobsSLA 0
scalar FogSequentialForward.fog[14].dispatcher jobs_class_1 361912
scalar FogSequentialForward.fog[14].dispatcher remoteJobs_class_1 53
scalar FogSequentialForward.fog[14].dispatcher localJobs_class_1 361859
scalar FogSequentialForward.fog[14].server[0] rho 0.55953013896942
scalar FogSequentialForward.fog[14].server[0] congestionRatio 0
scalar FogSequentialForward.fog[14].server[0] totalJobs 361859
scalar FogSequentialForward.fog[14].server[0] droppedJobsQueue 0
scalar FogSequentialForward.fog[14].server[0] droppedJobsTimout 0
scalar FogSequentialForward.fog[14].server[0] droppedJobsSLA 4
scalar FogSequentialForward.fog[14].server[0] droppedJobsTotal 4
scalar FogSequentialForward.fog[15].dispatcher localJobs 359887
scalar FogSequentialForward.fog[15].dispatcher internalJobs 359886
scalar FogSequentialForward.fog[15].dispatcher externalJobs 33
scalar FogSequentialForward.fog[15].dispatcher remoteJobs 32
scalar FogSequentialForward.fog[15].dispatcher probeQueries 0
scalar FogSequentialForward.fog[15].dispatcher probeAnswers 0
scalar FogSequentialForward.fog[15].dispatcher droppedJobsSLA 0
scalar FogSequentialForward.fog[15].dispatcher jobs_class_1 359919
scalar FogSequentialForward.fog[15].dispatcher remoteJobs_class_1 32
scalar FogSequentialForward.fog[15].dispatcher localJobs_class_1 359887
scalar FogSequentialForward.fog[15].server[0] rho 0.55653595924377
scalar FogSequentialForward.fog[15].server[0] congestionRatio 0
scalar FogSequentialForward.fog[15].server[0] totalJobs 359887
scalar FogSequentialForward.fog[15].server[0] droppedJobsQueue 0
scalar FogSequentialForward.fog[15].server[0] droppedJobsTimout 0
scalar FogSequentialForward.fog[15].server[0] droppedJobsSLA 1
scalar FogSequentialForward.fog[15].server[0] droppedJobsTotal 1
scalar FogSequentialForward.fog[16].dispatcher localJobs 361413
scalar FogSequentialForward.fog[16].dispatcher internalJobs 361401
scalar FogSequentialForward.fog[16].dispatcher externalJobs 33
scalar FogSequentialForward.fog[16].dispatcher remoteJobs 21
scalar FogSequentialForward.fog[16].dispatcher probeQueries 0
scalar FogSequentialForward.fog[16].dispatcher probeAnswers 0
scalar FogSequentialForward.fog[16].dispatcher droppedJobsSLA 0
scalar FogSequentialForward.fog[16].dispatcher jobs_class_1 361434
scalar FogSequentialForward.fog[16].dispatcher remoteJobs_class_1 21
scalar FogSequentialForward.fog[16].dispatcher localJobs_class_1 361413
scalar FogSequentialForward.fog[16].server[0] rho 0.55883115530014
scalar FogSequentialForward.fog[16].server[0] congestionRatio 0
scalar FogSequentialForward.fog[16].server[0] totalJobs 361413
scalar FogSequentialForward.fog[16].server[0] droppedJobsQueue 0
scalar FogSequentialForward.fog[16].server[0] droppedJobsTimout 0
scalar FogSequentialForward.fog[16].server[0] droppedJobsSLA 1
scalar FogSequentialForward.fog[16].server[0] droppedJobsTotal 1
scalar FogSequentialForward.fog[17].dispatcher localJobs 360398
scalar FogSequentialForward.fog[17].dispatcher internalJobs 360388
scalar FogSequentialForward.fog[17].dispatcher externalJobs 35
scalar FogSequentialForward.fog[17].dispatcher remoteJobs 25
scalar FogSequentialForward.fog[17].dispatcher probeQueries 0
scalar FogSequentialForward.fog[17].dispatcher probeAnswers 0
scalar FogSequentialForward.fog[17].dispatcher droppedJobsSLA 0
scalar FogSequentialForward.fog[17].dispatcher jobs_class_1 360423
scalar FogSequentialForward.fog[17].dispatcher remoteJobs_class_1 25
scalar FogSequentialForward.fog[17].dispatcher localJobs_class_1 360398
scalar FogSequentialForward.fog[17].server[0] rho 0.55728679895401
scalar FogSequentialForward.fog[17].server[0] congestionRatio 0
scalar FogSequentialForward.fog[17].server[0] totalJobs 360398
scalar FogSequentialForward.fog[17].server[0] droppedJobsQueue 0
scalar FogSequentialForward.fog[17].server[0] droppedJobsTimout 0
scalar FogSequentialForward.fog[17].server[0] droppedJobsSLA 1
scalar FogSequentialForward.fog[17].server[0] droppedJobsTotal 1
scalar FogSequentialForward.fog[18].dispatcher localJobs 360831
scalar FogSequentialForward.fog[18].dispatcher internalJobs 360837
scalar FogSequentialForward.fog[18].dispatcher externalJobs 35
scalar FogSequentialForward.fog[18].dispatcher remoteJobs 41
scalar FogSequentialForward.fog[18].dispatcher probeQueries 0
scalar FogSequentialForward.fog[18].dispatcher probeAnswers 0
scalar FogSequentialForward.fog[18].dispatcher droppedJobsSLA 0
scalar FogSequentialForward.fog[18].dispatcher jobs_class_1 360872
scalar FogSequentialForward.fog[18].dispatcher remoteJobs_class_1 41
scalar FogSequentialForward.fog[18].dispatcher localJobs_class_1 360831
scalar FogSequentialForward.fog[18].server[0] rho 0.5579589009285
scalar FogSequentialForward.fog[18].server[0] congestionRatio 0
scalar FogSequentialForward.fog[18].server[0] totalJobs 360831
scalar FogSequentialForward.fog[18].server[0] droppedJobsQueue 0
scalar FogSequentialForward.fog[18].server[0] droppedJobsTimout 0
scalar FogSequentialForward.fog[18].server[0] droppedJobsSLA 2
scalar FogSequentialForward.fog[18].server[0] droppedJobsTotal 2
scalar FogSequentialForward.fog[19].dispatcher localJobs 360674
scalar FogSequentialForward.fog[19].dispatcher internalJobs 360660
scalar FogSequentialForward.fog[19].dispatcher externalJobs 36
scalar FogSequentialForward.fog[19].dispatcher remoteJobs 22
scalar FogSequentialForward.fog[19].dispatcher probeQueries 0
scalar FogSequentialForward.fog[19].dispatcher probeAnswers 0
scalar FogSequentialForward.fog[19].dispatcher droppedJobsSLA 0
scalar FogSequentialForward.fog[19].dispatcher jobs_class_1 360696
scalar FogSequentialForward.fog[19].dispatcher remoteJobs_class_1 22
scalar FogSequentialForward.fog[19].dispatcher localJobs_class_1 360674
scalar FogSequentialForward.fog[19].server[0] rho 0.55771338939667
scalar FogSequentialForward.fog[19].server[0] congestionRatio 0
scalar FogSequentialForward.fog[19].server[0] totalJobs 360674
scalar FogSequentialForward.fog[19].server[0] droppedJobsQueue 0
scalar FogSequentialForward.fog[19].server[0] droppedJobsTimout 0
scalar FogSequentialForward.fog[19].server[0] droppedJobsSLA 1
scalar FogSequentialForward.fog[19].server[0] droppedJobsTotal 1
scalar FogSequentialForward.fog[20].dispatcher localJobs 361550
scalar FogSequentialForward.fog[20].dispatcher internalJobs 361559
scalar FogSequentialForward.fog[20].dispatcher externalJobs 32
scalar FogSequentialForward.fog[20].dispatcher remoteJobs 41
scalar FogSequentialForward.fog[20].dispatcher probeQueries 0
scalar FogSequentialForward.fog[20].dispatcher probeAnswers 0
scalar FogSequentialForward.fog[20].dispatcher droppedJobsSLA 0
scalar FogSequentialForward.fog[20].dispatcher jobs_class_1 361591
scalar FogSequentialForward.fog[20].dispatcher remoteJobs_class_1 41
scalar FogSequentialForward.fog[20].dispatcher localJobs_class_1 361550
scalar FogSequentialForward.fog[20].server[0] rho 0.55903726816177
scalar FogSequentialForward.fog[20].server[0] congestionRatio 0
scalar FogSequentialForward.fog[20].server[0] totalJobs 361550
scalar FogSequentialForward.fog[20].server[0] droppedJobsQueue 0
scalar FogSequentialForward.fog[20].server[0] droppedJobsTimout 0
scalar FogSequentialForward.fog[20].server[0] droppedJobsSLA 1
scalar FogSequentialForward.fog[20].server[0] droppedJobsTotal 1
scalar FogSequentialForward.fog[21].dispatcher localJobs 361547
scalar FogSequentialForward.fog[21].dispatcher internalJobs 361561
scalar FogSequentialForward.fog[21].dispatcher externalJobs 30
scalar FogSequentialForward.fog[21].dispatcher remoteJobs 44
scalar FogSequentialForward.fog[21].dispatcher probeQueries 0
scalar FogSequentialForward.fog[21].dispatcher probeAnswers 0
scalar FogSequentialForward.fog[21].dispatcher droppedJobsSLA 0
scalar FogSequentialForward.fog[21].dispatcher jobs_class_1 361591
scalar FogSequentialForward.fog[21].dispatcher remoteJobs_class_1 44
scalar FogSequentialForward.fog[21].dispatcher localJobs_class_1 361547
scalar FogSequentialForward.fog[21].server[0] rho 0.55904883146286
scalar FogSequentialForward.fog[21].server[0] congestionRatio 0
scalar FogSequentialForward.fog[21].server[0] totalJobs 361547
scalar FogSequentialForward.fog[21].server[0] droppedJobsQueue 0
scalar FogSequentialForward.fog[21].server[0] droppedJobsTimout 0
scalar FogSequentialForward.fog[21].server[0] droppedJobsSLA 1
scalar FogSequentialForward.fog[21].server[0] droppedJobsTotal 1
scalar FogSequentialForward.fog[22].dispatcher localJobs 361438
scalar FogSequentialForward.fog[22].dispatcher internalJobs 361469
scalar FogSequentialForward.fog[22].dispatcher externalJobs 15
scalar FogSequentialForward.fog[22].dispatcher remoteJobs 46
scalar FogSequentialForward.fog[22].dispatcher probeQueries 0
scalar FogSequentialForward.fog[22].dispatcher probeAnswers 0
scalar FogSequentialForward.fog[22].dispatcher droppedJobsSLA 0
scalar FogSequentialForward.fog[22].dispatcher jobs_class_1 361484
scalar FogSequentialForward.fog[22].dispatcher remoteJobs_class_1 46
scalar FogSequentialForward.fog[22].dispatcher localJobs_class_1 361438
scalar FogSequentialForward.fog[22].server[0] rho 0.55889564752579
scalar FogSequentialForward.fog[22].server[0] congestionRatio 0
scalar FogSequentialForward.fog[22].server[0] totalJobs 361438
scalar FogSequentialForward.fog[22].server[0] droppedJobsQueue 0
scalar FogSequentialForward.fog[22].server[0] droppedJobsTimout 0
scalar FogSequentialForward.fog[22].server[0] droppedJobsSLA 1
scalar FogSequentialForward.fog[22].server[0] droppedJobsTotal 1
scalar FogSequentialForward.fog[23].dispatcher localJobs 360470
scalar FogSequentialForward.fog[23].dispatcher internalJobs 360469
scalar FogSequentialForward.fog[23].dispatcher externalJobs 37
scalar FogSequentialForward.fog[23].dispatcher remoteJobs 36
scalar FogSequentialForward.fog[23].dispatcher probeQueries 0
scalar FogSequentialForward.fog[23].dispatcher probeAnswers 0
scalar FogSequentialForward.fog[23].dispatcher droppedJobsSLA 0
scalar FogSequentialForward.fog[23].dispatcher jobs_class_1 360506
scalar FogSequentialForward.fog[23].dispatcher remoteJobs_class_1 36
scalar FogSequentialForward.fog[23].dispatcher localJobs_class_1 360470
scalar FogSequentialForward.fog[23].server[0] rho 0.55737102031708
scalar FogSequentialForward.fog[23].server[0] congestionRatio 0
scalar FogSequentialForward.fog[23].server[0] totalJobs 360470
scalar FogSequentialForward.fog[23].server[0] droppedJobsQueue 0
scalar FogSequentialForward.fog[23].server[0] droppedJobsTimout 0
scalar FogSequentialForward.fog[23].server[0] droppedJobsSLA 1
scalar FogSequentialForward.fog[23].server[0] droppedJobsTotal 1
scalar FogSequentialForward.fog[24].dispatcher localJobs 360922
scalar FogSequentialForward.fog[24].dispatcher internalJobs 360922
scalar FogSequentialForward.fog[24].dispatcher externalJobs 29
scalar FogSequentialForward.fog[24].dispatcher remoteJobs 29
scalar FogSequentialForward.fog[24].dispatcher probeQueries 0
scalar FogSequentialForward.fog[24].dispatcher probeAnswers 0
scalar FogSequentialForward.fog[24].dispatcher droppedJobsSLA 0
scalar FogSequentialForward.fog[24].dispatcher jobs_class_1 360951
scalar FogSequentialForward.fog[24].dispatcher remoteJobs_class_1 29
scalar FogSequentialForward.fog[24].dispatcher localJobs_class_1 360922
scalar FogSequentialForward.fog[24].server[0] rho 0.55808901786804
scalar FogSequentialForward.fog[24].server[0] congestionRatio 0
scalar FogSequentialForward.fog[24].server[0] totalJobs 360922
scalar FogSequentialForward.fog[24].server[0] droppedJobsQueue 0
scalar FogSequentialForward.fog[24].server[0] droppedJobsTimout 0
scalar FogSequentialForward.fog[24].server[0] droppedJobsSLA 0
scalar FogSequentialForward.fog[24].server[0] droppedJobsTotal 0
scalar FogSequentialForward.fog[25].dispatcher localJobs 360648
scalar FogSequentialForward.fog[25].dispatcher internalJobs 360643
scalar FogSequentialForward.fog[25].dispatcher externalJobs 42
scalar FogSequentialForward.fog[25].dispatcher remoteJobs 37
scalar FogSequentialForward.fog[25].dispatcher probeQueries 0
scalar FogSequentialForward.fog[25].dispatcher probeAnswers 0
scalar FogSequentialForward.fog[25].dispatcher droppedJobsSLA 0
scalar FogSequentialForward.fog[25].dispatcher jobs_class_1 360685
scalar FogSequentialForward.fog[25].dispatcher remoteJobs_class_1 37
scalar FogSequentialForward.fog[25].dispatcher localJobs_class_1 360648
scalar FogSequentialForward.fog[25].server[0] rho 0.55764645338058
scalar FogSequentialForward.fog[25].server[0] congestionRatio 0
scalar FogSequentialForward.fog[25].server[0] totalJobs 360648
scalar FogSequentialForward.fog[25].server[0] droppedJobsQueue 0
scalar FogSequentialForward.fog[25].server[0] droppedJobsTimout 0
scalar FogSequentialForward.fog[25].server[0] droppedJobsSLA 1
scalar FogSequentialForward.fog[25].server[0] droppedJobsTotal 1
scalar FogSequentialForward.fog[26].dispatcher localJobs 360885
scalar FogSequentialForward.fog[26].dispatcher internalJobs 360890
scalar FogSequentialForward.fog[26].dispatcher externalJobs 30
scalar FogSequentialForward.fog[26].dispatcher remoteJobs 35
scalar FogSequentialForward.fog[26].dispatcher probeQueries 0
scalar FogSequentialForward.fog[26].dispatcher probeAnswers 0
scalar FogSequentialForward.fog[26].dispatcher droppedJobsSLA 0
scalar FogSequentialForward.fog[26].dispatcher jobs_class_1 360920
scalar FogSequentialForward.fog[26].dispatcher remoteJobs_class_1 35
scalar FogSequentialForward.fog[26].dispatcher localJobs_class_1 360885
scalar FogSequentialForward.fog[26].server[0] rho 0.55804896354675
scalar FogSequentialForward.fog[26].server[0] congestionRatio 0
scalar FogSequentialForward.fog[26].server[0] totalJobs 360885
scalar FogSequentialForward.fog[26].server[0] droppedJobsQueue 0
scalar FogSequentialForward.fog[26].server[0] droppedJobsTimout 0
scalar FogSequentialForward.fog[26].server[0] droppedJobsSLA 1
scalar FogSequentialForward.fog[26].server[0] droppedJobsTotal 1
scalar FogSequentialForward.fog[27].dispatcher localJobs 359796
scalar FogSequentialForward.fog[27].dispatcher internalJobs 359793
scalar FogSequentialForward.fog[27].dispatcher externalJobs 31
scalar FogSequentialForward.fog[27].dispatcher remoteJobs 28
scalar FogSequentialForward.fog[27].dispatcher probeQueries 0
scalar FogSequentialForward.fog[27].dispatcher probeAnswers 0
scalar FogSequentialForward.fog[27].dispatcher droppedJobsSLA 0
scalar FogSequentialForward.fog[27].dispatcher jobs_class_1 359824
scalar FogSequentialForward.fog[27].dispatcher remoteJobs_class_1 28
scalar FogSequentialForward.fog[27].dispatcher localJobs_class_1 359796
scalar FogSequentialForward.fog[27].server[0] rho 0.55635523796082
scalar FogSequentialForward.fog[27].server[0] congestionRatio 0
scalar FogSequentialForward.fog[27].server[0] totalJobs 359796
scalar FogSequentialForward.fog[27].server[0] droppedJobsQueue 0
scalar FogSequentialForward.fog[27].server[0] droppedJobsTimout 0
scalar FogSequentialForward.fog[27].server[0] droppedJobsSLA 2
scalar FogSequentialForward.fog[27].server[0] droppedJobsTotal 2
scalar FogSequentialForward.fog[28].dispatcher localJobs 361141
scalar FogSequentialForward.fog[28].dispatcher internalJobs 361127
scalar FogSequentialForward.fog[28].dispatcher externalJobs 38
scalar FogSequentialForward.fog[28].dispatcher remoteJobs 24
scalar FogSequentialForward.fog[28].dispatcher probeQueries 0
scalar FogSequentialForward.fog[28].dispatcher probeAnswers 0
scalar FogSequentialForward.fog[28].dispatcher droppedJobsSLA 0
scalar FogSequentialForward.fog[28].dispatcher jobs_class_1 361165
scalar FogSequentialForward.fog[28].dispatcher remoteJobs_class_1 24
scalar FogSequentialForward.fog[28].dispatcher localJobs_class_1 361141
scalar FogSequentialForward.fog[28].server[0] rho 0.55843985080719
scalar FogSequentialForward.fog[28].server[0] congestionRatio 0
scalar FogSequentialForward.fog[28].server[0] totalJobs 361141
scalar FogSequentialForward.fog[28].server[0] droppedJobsQueue 0
scalar FogSequentialForward.fog[28].server[0] droppedJobsTimout 0
scalar FogSequentialForward.fog[28].server[0] droppedJobsSLA 0
scalar FogSequentialForward.fog[28].server[0] droppedJobsTotal 0
scalar FogSequentialForward.fog[29].dispatcher localJobs 360488
scalar FogSequentialForward.fog[29].dispatcher internalJobs 360497
scalar FogSequentialForward.fog[29].dispatcher externalJobs 28
scalar FogSequentialForward.fog[29].dispatcher remoteJobs 37
scalar FogSequentialForward.fog[29].dispatcher probeQueries 0
scalar FogSequentialForward.fog[29].dispatcher probeAnswers 0
scalar FogSequentialForward.fog[29].dispatcher droppedJobsSLA 0
scalar FogSequentialForward.fog[29].dispatcher jobs_class_1 360525
scalar FogSequentialForward.fog[29].dispatcher remoteJobs_class_1 37
scalar FogSequentialForward.fog[29].dispatcher localJobs_class_1 360488
scalar FogSequentialForward.fog[29].server[0] rho 0.55744332075119
scalar FogSequentialForward.fog[29].server[0] congestionRatio 0
scalar FogSequentialForward.fog[29].server[0] totalJobs 360488
scalar FogSequentialForward.fog[29].server[0] droppedJobsQueue 0
scalar FogSequentialForward.fog[29].server[0] droppedJobsTimout 0
scalar FogSequentialForward.fog[29].server[0] droppedJobsSLA 0
scalar FogSequentialForward.fog[29].server[0] droppedJobsTotal 0
scalar FogSequentialForward.fog[30].dispatcher localJobs 360712
scalar FogSequentialForward.fog[30].dispatcher internalJobs 360717
scalar FogSequentialForward.fog[30].dispatcher externalJobs 31
scalar FogSequentialForward.fog[30].dispatcher remoteJobs 36
scalar FogSequentialForward.fog[30].dispatcher probeQueries 0
scalar FogSequentialForward.fog[30].dispatcher probeAnswers 0
scalar FogSequentialForward.fog[30].dispatcher droppedJobsSLA 0
scalar FogSequentialForward.fog[30].dispatcher jobs_class_1 360748
scalar FogSequentialForward.fog[30].dispatcher remoteJobs_class_1 36
scalar FogSequentialForward.fog[30].dispatcher localJobs_class_1 360712
scalar FogSequentialForward.fog[30].server[0] rho 0.55774009227753
scalar FogSequentialForward.fog[30].server[0] congestionRatio 0
scalar FogSequentialForward.fog[30].server[0] totalJobs 360712
scalar FogSequentialForward.fog[30].server[0] droppedJobsQueue 0
scalar FogSequentialForward.fog[30].server[0] droppedJobsTimout 0
scalar FogSequentialForward.fog[30].server[0] droppedJobsSLA 0
scalar FogSequentialForward.fog[30].server[0] droppedJobsTotal 0
scalar FogSequentialForward.fog[31].dispatcher localJobs 360066
scalar FogSequentialForward.fog[31].dispatcher internalJobs 360060
scalar FogSequentialForward.fog[31].dispatcher externalJobs 42
scalar FogSequentialForward.fog[31].dispatcher remoteJobs 36
scalar FogSequentialForward.fog[31].dispatcher probeQueries 0
scalar FogSequentialForward.fog[31].dispatcher probeAnswers 0
scalar FogSequentialForward.fog[31].dispatcher droppedJobsSLA 0
scalar FogSequentialForward.fog[31].dispatcher jobs_class_1 360102
scalar FogSequentialForward.fog[31].dispatcher remoteJobs_class_1 36
scalar FogSequentialForward.fog[31].dispatcher localJobs_class_1 360066
scalar FogSequentialForward.fog[31].server[0] rho 0.55675607919693
scalar FogSequentialForward.fog[31].server[0] congestionRatio 0
scalar FogSequentialForward.fog[31].server[0] totalJobs 360066
scalar FogSequentialForward.fog[31].server[0] droppedJobsQueue 0
scalar FogSequentialForward.fog[31].server[0] droppedJobsTimout 0
scalar FogSequentialForward.fog[31].server[0] droppedJobsSLA 0
scalar FogSequentialForward.fog[31].server[0] droppedJobsTotal 0
scalar FogSequentialForward.fog[32].dispatcher localJobs 360725
scalar FogSequentialForward.fog[32].dispatcher internalJobs 360717
scalar FogSequentialForward.fog[32].dispatcher externalJobs 39
scalar FogSequentialForward.fog[32].dispatcher remoteJobs 31
scalar FogSequentialForward.fog[32].dispatcher probeQueries 0
scalar FogSequentialForward.fog[32].dispatcher probeAnswers 0
scalar FogSequentialForward.fog[32].dispatcher droppedJobsSLA 0
scalar FogSequentialForward.fog[32].dispatcher jobs_class_1 360756
scalar FogSequentialForward.fog[32].dispatcher remoteJobs_class_1 31
scalar FogSequentialForward.fog[32].dispatcher localJobs_class_1 360725
scalar FogSequentialForward.fog[32].server[0] rho 0.55778777599335
scalar FogSequentialForward.fog[32].server[0] congestionRatio 0
scalar FogSequentialForward.fog[32].server[0] totalJobs 360725
scalar FogSequentialForward.fog[32].server[0] droppedJobsQueue 0
scalar FogSequentialForward.fog[32].server[0] droppedJobsTimout 0
scalar FogSequentialForward.fog[32].server[0] droppedJobsSLA 0
scalar FogSequentialForward.fog[32].server[0] droppedJobsTotal 0
scalar FogSequentialForward.fog[33].dispatcher localJobs 361437
scalar FogSequentialForward.fog[33].dispatcher internalJobs 361434
scalar FogSequentialForward.fog[33].dispatcher externalJobs 42
scalar FogSequentialForward.fog[33].dispatcher remoteJobs 39
scalar FogSequentialForward.fog[33].dispatcher probeQueries 0
scalar FogSequentialForward.fog[33].dispatcher probeAnswers 0
scalar FogSequentialForward.fog[33].dispatcher droppedJobsSLA 0
scalar FogSequentialForward.fog[33].dispatcher jobs_class_1 361476
scalar FogSequentialForward.fog[33].dispatcher remoteJobs_class_1 39
scalar FogSequentialForward.fog[33].dispatcher localJobs_class_1 361437
scalar FogSequentialForward.fog[33].server[0] rho 0.55888819694519
scalar FogSequentialForward.fog[33].server[0] congestionRatio 0
scalar FogSequentialForward.fog[33].server[0] totalJobs 361437
scalar FogSequentialForward.fog[33].server[0] droppedJobsQueue 0
scalar FogSequentialForward.fog[33].server[0] droppedJobsTimout 0
scalar FogSequentialForward.fog[33].server[0] droppedJobsSLA 1
scalar FogSequentialForward.fog[33].server[0] droppedJobsTotal 1
scalar FogSequentialForward.fog[34].dispatcher localJobs 360043
scalar FogSequentialForward.fog[34].dispatcher internalJobs 360034
scalar FogSequentialForward.fog[34].dispatcher externalJobs 35
scalar FogSequentialForward.fog[34].dispatcher remoteJobs 26
scalar FogSequentialForward.fog[34].dispatcher probeQueries 0
scalar FogSequentialForward.fog[34].dispatcher probeAnswers 0
scalar FogSequentialForward.fog[34].dispatcher droppedJobsSLA 0
scalar FogSequentialForward.fog[34].dispatcher jobs_class_1 360069
scalar FogSequentialForward.fog[34].dispatcher remoteJobs_class_1 26
scalar FogSequentialForward.fog[34].dispatcher localJobs_class_1 360043
scalar FogSequentialForward.fog[34].server[0] rho 0.55671572685242
scalar FogSequentialForward.fog[34].server[0] congestionRatio 0
scalar FogSequentialForward.fog[34].server[0] totalJobs 360043
scalar FogSequentialForward.fog[34].server[0] droppedJobsQueue 0
scalar FogSequentialForward.fog[34].server[0] droppedJobsTimout 0
scalar FogSequentialForward.fog[34].server[0] droppedJobsSLA 2
scalar FogSequentialForward.fog[34].server[0] droppedJobsTotal 2
scalar FogSequentialForward.fog[35].dispatcher localJobs 360809
scalar FogSequentialForward.fog[35].dispatcher internalJobs 360804
scalar FogSequentialForward.fog[35].dispatcher externalJobs 43
scalar FogSequentialForward.fog[35].dispatcher remoteJobs 38
scalar FogSequentialForward.fog[35].dispatcher probeQueries 0
scalar FogSequentialForward.fog[35].dispatcher probeAnswers 0
scalar FogSequentialForward.fog[35].dispatcher droppedJobsSLA 0
scalar FogSequentialForward.fog[35].dispatcher jobs_class_1 360847
scalar FogSequentialForward.fog[35].dispatcher remoteJobs_class_1 38
scalar FogSequentialForward.fog[35].dispatcher localJobs_class_1 360809
scalar FogSequentialForward.fog[35].server[0] rho 0.55791556835175
scalar FogSequentialForward.fog[35].server[0] congestionRatio 0
scalar FogSequentialForward.fog[35].server[0] totalJobs 360809
scalar FogSequentialForward.fog[35].server[0] droppedJobsQueue 0
scalar FogSequentialForward.fog[35].server[0] droppedJobsTimout 0
scalar FogSequentialForward.fog[35].server[0] droppedJobsSLA 0
scalar FogSequentialForward.fog[35].server[0] droppedJobsTotal 0
scalar FogSequentialForward.fog[36].dispatcher localJobs 361926
scalar FogSequentialForward.fog[36].dispatcher internalJobs 361926
scalar FogSequentialForward.fog[36].dispatcher externalJobs 31
scalar FogSequentialForward.fog[36].dispatcher remoteJobs 31
scalar FogSequentialForward.fog[36].dispatcher probeQueries 0
scalar FogSequentialForward.fog[36].dispatcher probeAnswers 0
scalar FogSequentialForward.fog[36].dispatcher droppedJobsSLA 0
scalar FogSequentialForward.fog[36].dispatcher jobs_class_1 361957
scalar FogSequentialForward.fog[36].dispatcher remoteJobs_class_1 31
scalar FogSequentialForward.fog[36].dispatcher localJobs_class_1 361926
scalar FogSequentialForward.fog[36].server[0] rho 0.55964535474777
scalar FogSequentialForward.fog[36].server[0] congestionRatio 0
scalar FogSequentialForward.fog[36].server[0] totalJobs 361926
scalar FogSequentialForward.fog[36].server[0] droppedJobsQueue 0
scalar FogSequentialForward.fog[36].server[0] droppedJobsTimout 0
scalar FogSequentialForward.fog[36].server[0] droppedJobsSLA 0
scalar FogSequentialForward.fog[36].server[0] droppedJobsTotal 0
scalar FogSequentialForward.fog[37].dispatcher localJobs 360614
scalar FogSequentialForward.fog[37].dispatcher internalJobs 360618
scalar FogSequentialForward.fog[37].dispatcher externalJobs 29
scalar FogSequentialForward.fog[37].dispatcher remoteJobs 33
scalar FogSequentialForward.fog[37].dispatcher probeQueries 0
scalar FogSequentialForward.fog[37].dispatcher probeAnswers 0
scalar FogSequentialForward.fog[37].dispatcher droppedJobsSLA 0
scalar FogSequentialForward.fog[37].dispatcher jobs_class_1 360647
scalar FogSequentialForward.fog[37].dispatcher remoteJobs_class_1 33
scalar FogSequentialForward.fog[37].dispatcher localJobs_class_1 360614
scalar FogSequentialForward.fog[37].server[0] rho 0.55759584903717
scalar FogSequentialForward.fog[37].server[0] congestionRatio 0
scalar FogSequentialForward.fog[37].server[0] totalJobs 360614
scalar FogSequentialForward.fog[37].server[0] droppedJobsQueue 0
scalar FogSequentialForward.fog[37].server[0] droppedJobsTimout 0
scalar FogSequentialForward.fog[37].server[0] droppedJobsSLA 2
scalar FogSequentialForward.fog[37].server[0] droppedJobsTotal 2
scalar FogSequentialForward.fog[38].dispatcher localJobs 360046
scalar FogSequentialForward.fog[38].dispatcher internalJobs 360058
scalar FogSequentialForward.fog[38].dispatcher externalJobs 33
scalar FogSequentialForward.fog[38].dispatcher remoteJobs 45
scalar FogSequentialForward.fog[38].dispatcher probeQueries 0
scalar FogSequentialForward.fog[38].dispatcher probeAnswers 0
scalar FogSequentialForward.fog[38].dispatcher droppedJobsSLA 0
scalar FogSequentialForward.fog[38].dispatcher jobs_class_1 360091
scalar FogSequentialForward.fog[38].dispatcher remoteJobs_class_1 45
scalar FogSequentialForward.fog[38].dispatcher localJobs_class_1 360046
scalar FogSequentialForward.fog[38].server[0] rho 0.55670928955078
scalar FogSequentialForward.fog[38].server[0] congestionRatio 0
scalar FogSequentialForward.fog[38].server[0] totalJobs 360046
scalar FogSequentialForward.fog[38].server[0] droppedJobsQueue 0
scalar FogSequentialForward.fog[38].server[0] droppedJobsTimout 0
scalar FogSequentialForward.fog[38].server[0] droppedJobsSLA 0
scalar FogSequentialForward.fog[38].server[0] droppedJobsTotal 0
scalar FogSequentialForward.fog[39].dispatcher localJobs 360592
scalar FogSequentialForward.fog[39].dispatcher internalJobs 360613
scalar FogSequentialForward.fog[39].dispatcher externalJobs 23
scalar FogSequentialForward.fog[39].dispatcher remoteJobs 44
scalar FogSequentialForward.fog[39].dispatcher probeQueries 0
scalar FogSequentialForward.fog[39].dispatcher probeAnswers 0
scalar FogSequentialForward.fog[39].dispatcher droppedJobsSLA 0
scalar FogSequentialForward.fog[39].dispatcher jobs_class_1 360636
scalar FogSequentialForward.fog[39].dispatcher remoteJobs_class_1 44
scalar FogSequentialForward.fog[39].dispatcher localJobs_class_1 360592
scalar FogSequentialForward.fog[39].server[0] rho 0.55757910013199
scalar FogSequentialForward.fog[39].server[0] congestionRatio 0
scalar FogSequentialForward.fog[39].server[0] totalJobs 360592
scalar FogSequentialForward.fog[39].server[0] droppedJobsQueue 0
scalar FogSequentialForward.fog[39].server[0] droppedJobsTimout 0
scalar FogSequentialForward.fog[39].server[0] droppedJobsSLA 0
scalar FogSequentialForward.fog[39].server[0] droppedJobsTotal 0
scalar FogSequentialForward.fog[40].dispatcher localJobs 360207
scalar FogSequentialForward.fog[40].dispatcher internalJobs 360210
scalar FogSequentialForward.fog[40].dispatcher externalJobs 25
scalar FogSequentialForward.fog[40].dispatcher remoteJobs 28
scalar FogSequentialForward.fog[40].dispatcher probeQueries 0
scalar FogSequentialForward.fog[40].dispatcher probeAnswers 0
scalar FogSequentialForward.fog[40].dispatcher droppedJobsSLA 0
scalar FogSequentialForward.fog[40].dispatcher jobs_class_1 360235
scalar FogSequentialForward.fog[40].dispatcher remoteJobs_class_1 28
scalar FogSequentialForward.fog[40].dispatcher localJobs_class_1 360207
scalar FogSequentialForward.fog[40].server[0] rho 0.55697226524353
scalar FogSequentialForward.fog[40].server[0] congestionRatio 0
scalar FogSequentialForward.fog[40].server[0] totalJobs 360207
scalar FogSequentialForward.fog[40].server[0] droppedJobsQueue 0
scalar FogSequentialForward.fog[40].server[0] droppedJobsTimout 0
scalar FogSequentialForward.fog[40].server[0] droppedJobsSLA 2
scalar FogSequentialForward.fog[40].server[0] droppedJobsTotal 2
scalar FogSequentialForward.fog[41].dispatcher localJobs 360928
scalar FogSequentialForward.fog[41].dispatcher internalJobs 360936
scalar FogSequentialForward.fog[41].dispatcher externalJobs 23
scalar FogSequentialForward.fog[41].dispatcher remoteJobs 31
scalar FogSequentialForward.fog[41].dispatcher probeQueries 0
scalar FogSequentialForward.fog[41].dispatcher probeAnswers 0
scalar FogSequentialForward.fog[41].dispatcher droppedJobsSLA 0
scalar FogSequentialForward.fog[41].dispatcher jobs_class_1 360959
scalar FogSequentialForward.fog[41].dispatcher remoteJobs_class_1 31
scalar FogSequentialForward.fog[41].dispatcher localJobs_class_1 360928
scalar FogSequentialForward.fog[41].server[0] rho 0.55810314416885
scalar FogSequentialForward.fog[41].server[0] congestionRatio 0
scalar FogSequentialForward.fog[41].server[0] totalJobs 360928
scalar FogSequentialForward.fog[41].server[0] droppedJobsQueue 0
scalar FogSequentialForward.fog[41].server[0] droppedJobsTimout 0
scalar FogSequentialForward.fog[41].server[0] droppedJobsSLA 2
scalar FogSequentialForward.fog[41].server[0] droppedJobsTotal 2
scalar FogSequentialForward.fog[42].dispatcher localJobs 360750
scalar FogSequentialForward.fog[42].dispatcher internalJobs 360731
scalar FogSequentialForward.fog[42].dispatcher externalJobs 42
scalar FogSequentialForward.fog[42].dispatcher remoteJobs 23
scalar FogSequentialForward.fog[42].dispatcher probeQueries 0
scalar FogSequentialForward.fog[42].dispatcher probeAnswers 0
scalar FogSequentialForward.fog[42].dispatcher droppedJobsSLA 0
scalar FogSequentialForward.fog[42].dispatcher jobs_class_1 360773
scalar FogSequentialForward.fog[42].dispatcher remoteJobs_class_1 23
scalar FogSequentialForward.fog[42].dispatcher localJobs_class_1 360750
scalar FogSequentialForward.fog[42].server[0] rho 0.55781596899033
scalar FogSequentialForward.fog[42].server[0] congestionRatio 0
scalar FogSequentialForward.fog[42].server[0] totalJobs 360750
scalar FogSequentialForward.fog[42].server[0] droppedJobsQueue 0
scalar FogSequentialForward.fog[42].server[0] droppedJobsTimout 0
scalar FogSequentialForward.fog[42].server[0] droppedJobsSLA 0
scalar FogSequentialForward.fog[42].server[0] droppedJobsTotal 0
scalar FogSequentialForward.fog[43].dispatcher localJobs 360487
scalar FogSequentialForward.fog[43].dispatcher internalJobs 360477
scalar FogSequentialForward.fog[43].dispatcher externalJobs 35
scalar FogSequentialForward.fog[43].dispatcher remoteJobs 25
scalar FogSequentialForward.fog[43].dispatcher probeQueries 0
scalar FogSequentialForward.fog[43].dispatcher probeAnswers 0
scalar FogSequentialForward.fog[43].dispatcher droppedJobsSLA 0
scalar FogSequentialForward.fog[43].dispatcher jobs_class_1 360512
scalar FogSequentialForward.fog[43].dispatcher remoteJobs_class_1 25
scalar FogSequentialForward.fog[43].dispatcher localJobs_class_1 360487
scalar FogSequentialForward.fog[43].server[0] rho 0.55740815401077
scalar FogSequentialForward.fog[43].server[0] congestionRatio 0
scalar FogSequentialForward.fog[43].server[0] totalJobs 360487
scalar FogSequentialForward.fog[43].server[0] droppedJobsQueue 0
scalar FogSequentialForward.fog[43].server[0] droppedJobsTimout 0
scalar FogSequentialForward.fog[43].server[0] droppedJobsSLA 1
scalar FogSequentialForward.fog[43].server[0] droppedJobsTotal 1
scalar FogSequentialForward.fog[44].dispatcher localJobs 359936
scalar FogSequentialForward.fog[44].dispatcher internalJobs 359940
scalar FogSequentialForward.fog[44].dispatcher externalJobs 27
scalar FogSequentialForward.fog[44].dispatcher remoteJobs 31
scalar FogSequentialForward.fog[44].dispatcher probeQueries 0
scalar FogSequentialForward.fog[44].dispatcher probeAnswers 0
scalar FogSequentialForward.fog[44].dispatcher droppedJobsSLA 0
scalar FogSequentialForward.fog[44].dispatcher jobs_class_1 359967
scalar FogSequentialForward.fog[44].dispatcher remoteJobs_class_1 31
scalar FogSequentialForward.fog[44].dispatcher localJobs_class_1 359936
scalar FogSequentialForward.fog[44].server[0] rho 0.55653619766235
scalar FogSequentialForward.fog[44].server[0] congestionRatio 0
scalar FogSequentialForward.fog[44].server[0] totalJobs 359936
scalar FogSequentialForward.fog[44].server[0] droppedJobsQueue 0
scalar FogSequentialForward.fog[44].server[0] droppedJobsTimout 0
scalar FogSequentialForward.fog[44].server[0] droppedJobsSLA 2
scalar FogSequentialForward.fog[44].server[0] droppedJobsTotal 2
scalar FogSequentialForward.fog[45].dispatcher localJobs 361638
scalar FogSequentialForward.fog[45].dispatcher internalJobs 361624
scalar FogSequentialForward.fog[45].dispatcher externalJobs 36
scalar FogSequentialForward.fog[45].dispatcher remoteJobs 22
scalar FogSequentialForward.fog[45].dispatcher probeQueries 0
scalar FogSequentialForward.fog[45].dispatcher probeAnswers 0
scalar FogSequentialForward.fog[45].dispatcher droppedJobsSLA 0
scalar FogSequentialForward.fog[45].dispatcher jobs_class_1 361660
scalar FogSequentialForward.fog[45].dispatcher remoteJobs_class_1 22
scalar FogSequentialForward.fog[45].dispatcher localJobs_class_1 361638
scalar FogSequentialForward.fog[45].server[0] rho 0.55919885635376
scalar FogSequentialForward.fog[45].server[0] congestionRatio 0
scalar FogSequentialForward.fog[45].server[0] totalJobs 361638
scalar FogSequentialForward.fog[45].server[0] droppedJobsQueue 0
scalar FogSequentialForward.fog[45].server[0] droppedJobsTimout 0
scalar FogSequentialForward.fog[45].server[0] droppedJobsSLA 1
scalar FogSequentialForward.fog[45].server[0] droppedJobsTotal 1
scalar FogSequentialForward.fog[46].dispatcher localJobs 359904
scalar FogSequentialForward.fog[46].dispatcher internalJobs 359902
scalar FogSequentialForward.fog[46].dispatcher externalJobs 29
scalar FogSequentialForward.fog[46].dispatcher remoteJobs 27
scalar FogSequentialForward.fog[46].dispatcher probeQueries 0
scalar FogSequentialForward.fog[46].dispatcher probeAnswers 0
scalar FogSequentialForward.fog[46].dispatcher droppedJobsSLA 0
scalar FogSequentialForward.fog[46].dispatcher jobs_class_1 359931
scalar FogSequentialForward.fog[46].dispatcher remoteJobs_class_1 27
scalar FogSequentialForward.fog[46].dispatcher localJobs_class_1 359904
scalar FogSequentialForward.fog[46].server[0] rho 0.55648189783096
scalar FogSequentialForward.fog[46].server[0] congestionRatio 0
scalar FogSequentialForward.fog[46].server[0] totalJobs 359904
scalar FogSequentialForward.fog[46].server[0] droppedJobsQueue 0
scalar FogSequentialForward.fog[46].server[0] droppedJobsTimout 0
scalar FogSequentialForward.fog[46].server[0] droppedJobsSLA 0
scalar FogSequentialForward.fog[46].server[0] droppedJobsTotal 0
scalar FogSequentialForward.fog[47].dispatcher localJobs 361223
scalar FogSequentialForward.fog[47].dispatcher internalJobs 361214
scalar FogSequentialForward.fog[47].dispatcher externalJobs 36
scalar FogSequentialForward.fog[47].dispatcher remoteJobs 27
scalar FogSequentialForward.fog[47].dispatcher probeQueries 0
scalar FogSequentialForward.fog[47].dispatcher probeAnswers 0
scalar FogSequentialForward.fog[47].dispatcher droppedJobsSLA 0
scalar FogSequentialForward.fog[47].dispatcher jobs_class_1 361250
scalar FogSequentialForward.fog[47].dispatcher remoteJobs_class_1 27
scalar FogSequentialForward.fog[47].dispatcher localJobs_class_1 361223
scalar FogSequentialForward.fog[47].server[0] rho 0.55853706598282
scalar FogSequentialForward.fog[47].server[0] congestionRatio 0
scalar FogSequentialForward.fog[47].server[0] totalJobs 361223
scalar FogSequentialForward.fog[47].server[0] droppedJobsQueue 0
scalar FogSequentialForward.fog[47].server[0] droppedJobsTimout 0
scalar FogSequentialForward.fog[47].server[0] droppedJobsSLA 0
scalar FogSequentialForward.fog[47].server[0] droppedJobsTotal 0
scalar FogSequentialForward.fog[48].dispatcher localJobs 361101
scalar FogSequentialForward.fog[48].dispatcher internalJobs 361116
scalar FogSequentialForward.fog[48].dispatcher externalJobs 35
scalar FogSequentialForward.fog[48].dispatcher remoteJobs 50
scalar FogSequentialForward.fog[48].dispatcher probeQueries 0
scalar FogSequentialForward.fog[48].dispatcher probeAnswers 0
scalar FogSequentialForward.fog[48].dispatcher droppedJobsSLA 0
scalar FogSequentialForward.fog[48].dispatcher jobs_class_1 361151
scalar FogSequentialForward.fog[48].dispatcher remoteJobs_class_1 50
scalar FogSequentialForward.fog[48].dispatcher localJobs_class_1 361101
scalar FogSequentialForward.fog[48].server[0] rho 0.55831158161163
scalar FogSequentialForward.fog[48].server[0] congestionRatio 0
scalar FogSequentialForward.fog[48].server[0] totalJobs 361101
scalar FogSequentialForward.fog[48].server[0] droppedJobsQueue 0
scalar FogSequentialForward.fog[48].server[0] droppedJobsTimout 0
scalar FogSequentialForward.fog[48].server[0] droppedJobsSLA 1
scalar FogSequentialForward.fog[48].server[0] droppedJobsTotal 1
scalar FogSequentialForward.fog[49].dispatcher localJobs 360769
scalar FogSequentialForward.fog[49].dispatcher internalJobs 360767
scalar FogSequentialForward.fog[49].dispatcher externalJobs 32
scalar FogSequentialForward.fog[49].dispatcher remoteJobs 30
scalar FogSequentialForward.fog[49].dispatcher probeQueries 0
scalar FogSequentialForward.fog[49].dispatcher probeAnswers 0
scalar FogSequentialForward.fog[49].dispatcher droppedJobsSLA 0
scalar FogSequentialForward.fog[49].dispatcher jobs_class_1 360799
scalar FogSequentialForward.fog[49].dispatcher remoteJobs_class_1 30
scalar FogSequentialForward.fog[49].dispatcher localJobs_class_1 360769
scalar FogSequentialForward.fog[49].server[0] rho 0.55787032842636
scalar FogSequentialForward.fog[49].server[0] congestionRatio 0
scalar FogSequentialForward.fog[49].server[0] totalJobs 360769
scalar FogSequentialForward.fog[49].server[0] droppedJobsQueue 0
scalar FogSequentialForward.fog[49].server[0] droppedJobsTimout 0
scalar FogSequentialForward.fog[49].server[0] droppedJobsSLA 2
scalar FogSequentialForward.fog[49].server[0] droppedJobsTotal 2
scalar FogSequentialForward.fog[50].dispatcher localJobs 360717
scalar FogSequentialForward.fog[50].dispatcher internalJobs 360751
scalar FogSequentialForward.fog[50].dispatcher externalJobs 19
scalar FogSequentialForward.fog[50].dispatcher remoteJobs 53
scalar FogSequentialForward.fog[50].dispatcher probeQueries 0
scalar FogSequentialForward.fog[50].dispatcher probeAnswers 0
scalar FogSequentialForward.fog[50].dispatcher droppedJobsSLA 0
scalar FogSequentialForward.fog[50].dispatcher jobs_class_1 360770
scalar FogSequentialForward.fog[50].dispatcher remoteJobs_class_1 53
scalar FogSequentialForward.fog[50].dispatcher localJobs_class_1 360717
scalar FogSequentialForward.fog[50].server[0] rho 0.55778056383133
scalar FogSequentialForward.fog[50].server[0] congestionRatio 0
scalar FogSequentialForward.fog[50].server[0] totalJobs 360717
scalar FogSequentialForward.fog[50].server[0] droppedJobsQueue 0
scalar FogSequentialForward.fog[50].server[0] droppedJobsTimout 0
scalar FogSequentialForward.fog[50].server[0] droppedJobsSLA 2
scalar FogSequentialForward.fog[50].server[0] droppedJobsTotal 2
scalar FogSequentialForward.fog[51].dispatcher localJobs 361236
scalar FogSequentialForward.fog[51].dispatcher internalJobs 361237
scalar FogSequentialForward.fog[51].dispatcher externalJobs 26
scalar FogSequentialForward.fog[51].dispatcher remoteJobs 27
scalar FogSequentialForward.fog[51].dispatcher probeQueries 0
scalar FogSequentialForward.fog[51].dispatcher probeAnswers 0
scalar FogSequentialForward.fog[51].dispatcher droppedJobsSLA 0
scalar FogSequentialForward.fog[51].dispatcher jobs_class_1 361263
scalar FogSequentialForward.fog[51].dispatcher remoteJobs_class_1 27
scalar FogSequentialForward.fog[51].dispatcher localJobs_class_1 361236
scalar FogSequentialForward.fog[51].server[0] rho 0.55856603384018
scalar FogSequentialForward.fog[51].server[0] congestionRatio 0
scalar FogSequentialForward.fog[51].server[0] totalJobs 361236
scalar FogSequentialForward.fog[51].server[0] droppedJobsQueue 0
scalar FogSequentialForward.fog[51].server[0] droppedJobsTimout 0
scalar FogSequentialForward.fog[51].server[0] droppedJobsSLA 0
scalar FogSequentialForward.fog[51].server[0] droppedJobsTotal 0
scalar FogSequentialForward.fog[52].dispatcher localJobs 360290
scalar FogSequentialForward.fog[52].dispatcher internalJobs 360304
scalar FogSequentialForward.fog[52].dispatcher externalJobs 23
scalar FogSequentialForward.fog[52].dispatcher remoteJobs 37
scalar FogSequentialForward.fog[52].dispatcher probeQueries 0
scalar FogSequentialForward.fog[52].dispatcher probeAnswers 0
scalar FogSequentialForward.fog[52].dispatcher droppedJobsSLA 0
scalar FogSequentialForward.fog[52].dispatcher jobs_class_1 360327
scalar FogSequentialForward.fog[52].dispatcher remoteJobs_class_1 37
scalar FogSequentialForward.fog[52].dispatcher localJobs_class_1 360290
scalar FogSequentialForward.fog[52].server[0] rho 0.55710875988007
scalar FogSequentialForward.fog[52].server[0] congestionRatio 0
scalar FogSequentialForward.fog[52].server[0] totalJobs 360290
scalar FogSequentialForward.fog[52].server[0] droppedJobsQueue 0
scalar FogSequentialForward.fog[52].server[0] droppedJobsTimout 0
scalar FogSequentialForward.fog[52].server[0] droppedJobsSLA 3
scalar FogSequentialForward.fog[52].server[0] droppedJobsTotal 3
scalar FogSequentialForward.fog[53].dispatcher localJobs 360934
scalar FogSequentialForward.fog[53].dispatcher internalJobs 360925
scalar FogSequentialForward.fog[53].dispatcher externalJobs 34
scalar FogSequentialForward.fog[53].dispatcher remoteJobs 25
scalar FogSequentialForward.fog[53].dispatcher probeQueries 0
scalar FogSequentialForward.fog[53].dispatcher probeAnswers 0
scalar FogSequentialForward.fog[53].dispatcher droppedJobsSLA 0
scalar FogSequentialForward.fog[53].dispatcher jobs_class_1 360959
scalar FogSequentialForward.fog[53].dispatcher remoteJobs_class_1 25
scalar FogSequentialForward.fog[53].dispatcher localJobs_class_1 360934
scalar FogSequentialForward.fog[53].server[0] rho 0.55810785293579
scalar FogSequentialForward.fog[53].server[0] congestionRatio 0
scalar FogSequentialForward.fog[53].server[0] totalJobs 360934
scalar FogSequentialForward.fog[53].server[0] droppedJobsQueue 0
scalar FogSequentialForward.fog[53].server[0] droppedJobsTimout 0
scalar FogSequentialForward.fog[53].server[0] droppedJobsSLA 0
scalar FogSequentialForward.fog[53].server[0] droppedJobsTotal 0
scalar FogSequentialForward.fog[54].dispatcher localJobs 360609
scalar FogSequentialForward.fog[54].dispatcher internalJobs 360599
scalar FogSequentialForward.fog[54].dispatcher externalJobs 37
scalar FogSequentialForward.fog[54].dispatcher remoteJobs 27
scalar FogSequentialForward.fog[54].dispatcher probeQueries 0
scalar FogSequentialForward.fog[54].dispatcher probeAnswers 0
scalar FogSequentialForward.fog[54].dispatcher droppedJobsSLA 0
scalar FogSequentialForward.fog[54].dispatcher jobs_class_1 360636
scalar FogSequentialForward.fog[54].dispatcher remoteJobs_class_1 27
scalar FogSequentialForward.fog[54].dispatcher localJobs_class_1 360609
scalar FogSequentialForward.fog[54].server[0] rho 0.55764430761337
scalar FogSequentialForward.fog[54].server[0] congestionRatio 0
scalar FogSequentialForward.fog[54].server[0] totalJobs 360609
scalar FogSequentialForward.fog[54].server[0] droppedJobsQueue 0
scalar FogSequentialForward.fog[54].server[0] droppedJobsTimout 0
scalar FogSequentialForward.fog[54].server[0] droppedJobsSLA 1
scalar FogSequentialForward.fog[54].server[0] droppedJobsTotal 1
scalar FogSequentialForward.fog[55].dispatcher localJobs 361176
scalar FogSequentialForward.fog[55].dispatcher internalJobs 361172
scalar FogSequentialForward.fog[55].dispatcher externalJobs 31
scalar FogSequentialForward.fog[55].dispatcher remoteJobs 27
scalar FogSequentialForward.fog[55].dispatcher probeQueries 0
scalar FogSequentialForward.fog[55].dispatcher probeAnswers 0
scalar FogSequentialForward.fog[55].dispatcher droppedJobsSLA 0
scalar FogSequentialForward.fog[55].dispatcher jobs_class_1 361203
scalar FogSequentialForward.fog[55].dispatcher remoteJobs_class_1 27
scalar FogSequentialForward.fog[55].dispatcher localJobs_class_1 361176
scalar FogSequentialForward.fog[55].server[0] rho 0.55849879980087
scalar FogSequentialForward.fog[55].server[0] congestionRatio 0
scalar FogSequentialForward.fog[55].server[0] totalJobs 361176
scalar FogSequentialForward.fog[55].server[0] droppedJobsQueue 0
scalar FogSequentialForward.fog[55].server[0] droppedJobsTimout 0
scalar FogSequentialForward.fog[55].server[0] droppedJobsSLA 0
scalar FogSequentialForward.fog[55].server[0] droppedJobsTotal 0
scalar FogSequentialForward.fog[56].dispatcher localJobs 359763
scalar FogSequentialForward.fog[56].dispatcher internalJobs 359757
scalar FogSequentialForward.fog[56].dispatcher externalJobs 37
scalar FogSequentialForward.fog[56].dispatcher remoteJobs 31
scalar FogSequentialForward.fog[56].dispatcher probeQueries 0
scalar FogSequentialForward.fog[56].dispatcher probeAnswers 0
scalar FogSequentialForward.fog[56].dispatcher droppedJobsSLA 0
scalar FogSequentialForward.fog[56].dispatcher jobs_class_1 359794
scalar FogSequentialForward.fog[56].dispatcher remoteJobs_class_1 31
scalar FogSequentialForward.fog[56].dispatcher localJobs_class_1 359763
scalar FogSequentialForward.fog[56].server[0] rho 0.55631011724472
scalar FogSequentialForward.fog[56].server[0] congestionRatio 0
scalar FogSequentialForward.fog[56].server[0] totalJobs 359763
scalar FogSequentialForward.fog[56].server[0] droppedJobsQueue 0
scalar FogSequentialForward.fog[56].server[0] droppedJobsTimout 0
scalar FogSequentialForward.fog[56].server[0] droppedJobsSLA 0
scalar FogSequentialForward.fog[56].server[0] droppedJobsTotal 0
scalar FogSequentialForward.fog[57].dispatcher localJobs 360810
scalar FogSequentialForward.fog[57].dispatcher internalJobs 360807
scalar FogSequentialForward.fog[57].dispatcher externalJobs 36
scalar FogSequentialForward.fog[57].dispatcher remoteJobs 33
scalar FogSequentialForward.fog[57].dispatcher probeQueries 0
scalar FogSequentialForward.fog[57].dispatcher probeAnswers 0
scalar FogSequentialForward.fog[57].dispatcher droppedJobsSLA 0
scalar FogSequentialForward.fog[57].dispatcher jobs_class_1 360843
scalar FogSequentialForward.fog[57].dispatcher remoteJobs_class_1 33
scalar FogSequentialForward.fog[57].dispatcher localJobs_class_1 360810
scalar FogSequentialForward.fog[57].server[0] rho 0.5579132437706
scalar FogSequentialForward.fog[57].server[0] congestionRatio 0
scalar FogSequentialForward.fog[57].server[0] totalJobs 360810
scalar FogSequentialForward.fog[57].server[0] droppedJobsQueue 0
scalar FogSequentialForward.fog[57].server[0] droppedJobsTimout 0
scalar FogSequentialForward.fog[57].server[0] droppedJobsSLA 0
scalar FogSequentialForward.fog[57].server[0] droppedJobsTotal 0
scalar FogSequentialForward.fog[58].dispatcher localJobs 361510
scalar FogSequentialForward.fog[58].dispatcher internalJobs 361506
scalar FogSequentialForward.fog[58].dispatcher externalJobs 31
scalar FogSequentialForward.fog[58].dispatcher remoteJobs 27
scalar FogSequentialForward.fog[58].dispatcher probeQueries 0
scalar FogSequentialForward.fog[58].dispatcher probeAnswers 0
scalar FogSequentialForward.fog[58].dispatcher droppedJobsSLA 0
scalar FogSequentialForward.fog[58].dispatcher jobs_class_1 361537
scalar FogSequentialForward.fog[58].dispatcher remoteJobs_class_1 27
scalar FogSequentialForward.fog[58].dispatcher localJobs_class_1 361510
scalar FogSequentialForward.fog[58].server[0] rho 0.55900102853775
scalar FogSequentialForward.fog[58].server[0] congestionRatio 0
scalar FogSequentialForward.fog[58].server[0] totalJobs 361510
scalar FogSequentialForward.fog[58].server[0] droppedJobsQueue 0
scalar FogSequentialForward.fog[58].server[0] droppedJobsTimout 0
scalar FogSequentialForward.fog[58].server[0] droppedJobsSLA 0
scalar FogSequentialForward.fog[58].server[0] droppedJobsTotal 0
scalar FogSequentialForward.fog[59].dispatcher localJobs 361293
scalar FogSequentialForward.fog[59].dispatcher internalJobs 361307
scalar FogSequentialForward.fog[59].dispatcher externalJobs 38
scalar FogSequentialForward.fog[59].dispatcher remoteJobs 52
scalar FogSequentialForward.fog[59].dispatcher probeQueries 0
scalar FogSequentialForward.fog[59].dispatcher probeAnswers 0
scalar FogSequentialForward.fog[59].dispatcher droppedJobsSLA 0
scalar FogSequentialForward.fog[59].dispatcher jobs_class_1 361345
scalar FogSequentialForward.fog[59].dispatcher remoteJobs_class_1 52
scalar FogSequentialForward.fog[59].dispatcher localJobs_class_1 361293
scalar FogSequentialForward.fog[59].server[0] rho 0.55866348743439
scalar FogSequentialForward.fog[59].server[0] congestionRatio 0
scalar FogSequentialForward.fog[59].server[0] totalJobs 361293
scalar FogSequentialForward.fog[59].server[0] droppedJobsQueue 0
scalar FogSequentialForward.fog[59].server[0] droppedJobsTimout 0
scalar FogSequentialForward.fog[59].server[0] droppedJobsSLA 0
scalar FogSequentialForward.fog[59].server[0] droppedJobsTotal 0
scalar FogSequentialForward.fog[60].dispatcher localJobs 360560
scalar FogSequentialForward.fog[60].dispatcher internalJobs 360557
scalar FogSequentialForward.fog[60].dispatcher externalJobs 35
scalar FogSequentialForward.fog[60].dispatcher remoteJobs 32
scalar FogSequentialForward.fog[60].dispatcher probeQueries 0
scalar FogSequentialForward.fog[60].dispatcher probeAnswers 0
scalar FogSequentialForward.fog[60].dispatcher droppedJobsSLA 0
scalar FogSequentialForward.fog[60].dispatcher jobs_class_1 360592
scalar FogSequentialForward.fog[60].dispatcher remoteJobs_class_1 32
scalar FogSequentialForward.fog[60].dispatcher localJobs_class_1 360560
scalar FogSequentialForward.fog[60].server[0] rho 0.55752617120743
scalar FogSequentialForward.fog[60].server[0] congestionRatio 0
scalar FogSequentialForward.fog[60].server[0] totalJobs 360560
scalar FogSequentialForward.fog[60].server[0] droppedJobsQueue 0
scalar FogSequentialForward.fog[60].server[0] droppedJobsTimout 0
scalar FogSequentialForward.fog[60].server[0] droppedJobsSLA 0
scalar FogSequentialForward.fog[60].server[0] droppedJobsTotal 0
scalar FogSequentialForward.fog[61].dispatcher localJobs 361110
scalar FogSequentialForward.fog[61].dispatcher internalJobs 361110
scalar FogSequentialForward.fog[61].dispatcher externalJobs 37
scalar FogSequentialForward.fog[61].dispatcher remoteJobs 37
scalar FogSequentialForward.fog[61].dispatcher probeQueries 0
scalar FogSequentialForward.fog[61].dispatcher probeAnswers 0
scalar FogSequentialForward.fog[61].dispatcher droppedJobsSLA 0
scalar FogSequentialForward.fog[61].dispatcher jobs_class_1 361147
scalar FogSequentialForward.fog[61].dispatcher remoteJobs_class_1 37
scalar FogSequentialForward.fog[61].dispatcher localJobs_class_1 361110
scalar FogSequentialForward.fog[61].server[0] rho 0.55836325883865
scalar FogSequentialForward.fog[61].server[0] congestionRatio 0
scalar FogSequentialForward.fog[61].server[0] totalJobs 361110
scalar FogSequentialForward.fog[61].server[0] droppedJobsQueue 0
scalar FogSequentialForward.fog[61].server[0] droppedJobsTimout 0
scalar FogSequentialForward.fog[61].server[0] droppedJobsSLA 2
scalar FogSequentialForward.fog[61].server[0] droppedJobsTotal 2
scalar FogSequentialForward.fog[62].dispatcher localJobs 361419
scalar FogSequentialForward.fog[62].dispatcher internalJobs 361423
scalar FogSequentialForward.fog[62].dispatcher externalJobs 34
scalar FogSequentialForward.fog[62].dispatcher remoteJobs 38
scalar FogSequentialForward.fog[62].dispatcher probeQueries 0
scalar FogSequentialForward.fog[62].dispatcher probeAnswers 0
scalar FogSequentialForward.fog[62].dispatcher droppedJobsSLA 0
scalar FogSequentialForward.fog[62].dispatcher jobs_class_1 361457
scalar FogSequentialForward.fog[62].dispatcher remoteJobs_class_1 38
scalar FogSequentialForward.fog[62].dispatcher localJobs_class_1 361419
scalar FogSequentialForward.fog[62].server[0] rho 0.55886280536652
scalar FogSequentialForward.fog[62].server[0] congestionRatio 0
scalar FogSequentialForward.fog[62].server[0] totalJobs 361419
scalar FogSequentialForward.fog[62].server[0] droppedJobsQueue 0
scalar FogSequentialForward.fog[62].server[0] droppedJobsTimout 0
scalar FogSequentialForward.fog[62].server[0] droppedJobsSLA 1
scalar FogSequentialForward.fog[62].server[0] droppedJobsTotal 1
scalar FogSequentialForward.fog[63].dispatcher localJobs 361344
scalar FogSequentialForward.fog[63].dispatcher internalJobs 361342
scalar FogSequentialForward.fog[63].dispatcher externalJobs 34
scalar FogSequentialForward.fog[63].dispatcher remoteJobs 32
scalar FogSequentialForward.fog[63].dispatcher probeQueries 0
scalar FogSequentialForward.fog[63].dispatcher probeAnswers 0
scalar FogSequentialForward.fog[63].dispatcher droppedJobsSLA 0
scalar FogSequentialForward.fog[63].dispatcher jobs_class_1 361376
scalar FogSequentialForward.fog[63].dispatcher remoteJobs_class_1 32
scalar FogSequentialForward.fog[63].dispatcher localJobs_class_1 361344
scalar FogSequentialForward.fog[63].server[0] rho 0.55873221158981
scalar FogSequentialForward.fog[63].server[0] congestionRatio 0
scalar FogSequentialForward.fog[63].server[0] totalJobs 361344
scalar FogSequentialForward.fog[63].server[0] droppedJobsQueue 0
scalar FogSequentialForward.fog[63].server[0] droppedJobsTimout 0
scalar FogSequentialForward.fog[63].server[0] droppedJobsSLA 0
scalar FogSequentialForward.fog[63].server[0] droppedJobsTotal 0
scalar FogSequentialForward.fog[64].dispatcher localJobs 360744
scalar FogSequentialForward.fog[64].dispatcher internalJobs 360763
scalar FogSequentialForward.fog[64].dispatcher externalJobs 23
scalar FogSequentialForward.fog[64].dispatcher remoteJobs 42
scalar FogSequentialForward.fog[64].dispatcher probeQueries 0
scalar FogSequentialForward.fog[64].dispatcher probeAnswers 0
scalar FogSequentialForward.fog[64].dispatcher droppedJobsSLA 0
scalar FogSequentialForward.fog[64].dispatcher jobs_class_1 360786
scalar FogSequentialForward.fog[64].dispatcher remoteJobs_class_1 42
scalar FogSequentialForward.fog[64].dispatcher localJobs_class_1 360744
scalar FogSequentialForward.fog[64].server[0] rho 0.55784696340561
scalar FogSequentialForward.fog[64].server[0] congestionRatio 0
scalar FogSequentialForward.fog[64].server[0] totalJobs 360744
scalar FogSequentialForward.fog[64].server[0] droppedJobsQueue 0
scalar FogSequentialForward.fog[64].server[0] droppedJobsTimout 0
scalar FogSequentialForward.fog[64].server[0] droppedJobsSLA 1
scalar FogSequentialForward.fog[64].server[0] droppedJobsTotal 1
scalar FogSequentialForward.fog[65].dispatcher localJobs 359933
scalar FogSequentialForward.fog[65].dispatcher internalJobs 359940
scalar FogSequentialForward.fog[65].dispatcher externalJobs 37
scalar FogSequentialForward.fog[65].dispatcher remoteJobs 44
scalar FogSequentialForward.fog[65].dispatcher probeQueries 0
scalar FogSequentialForward.fog[65].dispatcher probeAnswers 0
scalar FogSequentialForward.fog[65].dispatcher droppedJobsSLA 0
scalar FogSequentialForward.fog[65].dispatcher jobs_class_1 359977
scalar FogSequentialForward.fog[65].dispatcher remoteJobs_class_1 44
scalar FogSequentialForward.fog[65].dispatcher localJobs_class_1 359933
scalar FogSequentialForward.fog[65].server[0] rho 0.55655974149704
scalar FogSequentialForward.fog[65].server[0] congestionRatio 0
scalar FogSequentialForward.fog[65].server[0] totalJobs 359933
scalar FogSequentialForward.fog[65].server[0] droppedJobsQueue 0
scalar FogSequentialForward.fog[65].server[0] droppedJobsTimout 0
scalar FogSequentialForward.fog[65].server[0] droppedJobsSLA 2
scalar FogSequentialForward.fog[65].server[0] droppedJobsTotal 2
scalar FogSequentialForward.fog[66].dispatcher localJobs 361658
scalar FogSequentialForward.fog[66].dispatcher internalJobs 361662
scalar FogSequentialForward.fog[66].dispatcher externalJobs 34
scalar FogSequentialForward.fog[66].dispatcher remoteJobs 38
scalar FogSequentialForward.fog[66].dispatcher probeQueries 0
scalar FogSequentialForward.fog[66].dispatcher probeAnswers 0
scalar FogSequentialForward.fog[66].dispatcher droppedJobsSLA 0
scalar FogSequentialForward.fog[66].dispatcher jobs_class_1 361696
scalar FogSequentialForward.fog[66].dispatcher remoteJobs_class_1 38
scalar FogSequentialForward.fog[66].dispatcher localJobs_class_1 361658
scalar FogSequentialForward.fog[66].server[0] rho 0.55923569202423
scalar FogSequentialForward.fog[66].server[0] congestionRatio 0
scalar FogSequentialForward.fog[66].server[0] totalJobs 361658
scalar FogSequentialForward.fog[66].server[0] droppedJobsQueue 0
scalar FogSequentialForward.fog[66].server[0] droppedJobsTimout 0
scalar FogSequentialForward.fog[66].server[0] droppedJobsSLA 0
scalar FogSequentialForward.fog[66].server[0] droppedJobsTotal 0
scalar FogSequentialForward.fog[67].dispatcher localJobs 361055
scalar FogSequentialForward.fog[67].dispatcher internalJobs 361056
scalar FogSequentialForward.fog[67].dispatcher externalJobs 33
scalar FogSequentialForward.fog[67].dispatcher remoteJobs 34
scalar FogSequentialForward.fog[67].dispatcher probeQueries 0
scalar FogSequentialForward.fog[67].dispatcher probeAnswers 0
scalar FogSequentialForward.fog[67].dispatcher droppedJobsSLA 0
scalar FogSequentialForward.fog[67].dispatcher jobs_class_1 361089
scalar FogSequentialForward.fog[67].dispatcher remoteJobs_class_1 34
scalar FogSequentialForward.fog[67].dispatcher localJobs_class_1 361055
scalar FogSequentialForward.fog[67].server[0] rho 0.55828630924225
scalar FogSequentialForward.fog[67].server[0] congestionRatio 0
scalar FogSequentialForward.fog[67].server[0] totalJobs 361055
scalar FogSequentialForward.fog[67].server[0] droppedJobsQueue 0
scalar FogSequentialForward.fog[67].server[0] droppedJobsTimout 0
scalar FogSequentialForward.fog[67].server[0] droppedJobsSLA 0
scalar FogSequentialForward.fog[67].server[0] droppedJobsTotal 0
scalar FogSequentialForward.fog[68].dispatcher localJobs 359888
scalar FogSequentialForward.fog[68].dispatcher internalJobs 359872
scalar FogSequentialForward.fog[68].dispatcher externalJobs 32
scalar FogSequentialForward.fog[68].dispatcher remoteJobs 16
scalar FogSequentialForward.fog[68].dispatcher probeQueries 0
scalar FogSequentialForward.fog[68].dispatcher probeAnswers 0
scalar FogSequentialForward.fog[68].dispatcher droppedJobsSLA 0
scalar FogSequentialForward.fog[68].dispatcher jobs_class_1 359904
scalar FogSequentialForward.fog[68].dispatcher remoteJobs_class_1 16
scalar FogSequentialForward.fog[68].dispatcher localJobs_class_1 359888
scalar FogSequentialForward.fog[68].server[0] rho 0.55649000406265
scalar FogSequentialForward.fog[68].server[0] congestionRatio 0
scalar FogSequentialForward.fog[68].server[0] totalJobs 359888
scalar FogSequentialForward.fog[68].server[0] droppedJobsQueue 0
scalar FogSequentialForward.fog[68].server[0] droppedJobsTimout 0
scalar FogSequentialForward.fog[68].server[0] droppedJobsSLA 0
scalar FogSequentialForward.fog[68].server[0] droppedJobsTotal 0
scalar FogSequentialForward.fog[69].dispatcher localJobs 360801
scalar FogSequentialForward.fog[69].dispatcher internalJobs 360800
scalar FogSequentialForward.fog[69].dispatcher externalJobs 38
scalar FogSequentialForward.fog[69].dispatcher remoteJobs 37
scalar FogSequentialForward.fog[69].dispatcher probeQueries 0
scalar FogSequentialForward.fog[69].dispatcher probeAnswers 0
scalar FogSequentialForward.fog[69].dispatcher droppedJobsSLA 0
scalar FogSequentialForward.fog[69].dispatcher jobs_class_1 360838
scalar FogSequentialForward.fog[69].dispatcher remoteJobs_class_1 37
scalar FogSequentialForward.fog[69].dispatcher localJobs_class_1 360801
scalar FogSequentialForward.fog[69].server[0] rho 0.55789709091187
scalar FogSequentialForward.fog[69].server[0] congestionRatio 0
scalar FogSequentialForward.fog[69].server[0] totalJobs 360801
scalar FogSequentialForward.fog[69].server[0] droppedJobsQueue 0
scalar FogSequentialForward.fog[69].server[0] droppedJobsTimout 0
scalar FogSequentialForward.fog[69].server[0] droppedJobsSLA 0
scalar FogSequentialForward.fog[69].server[0] droppedJobsTotal 0
scalar FogSequentialForward.fog[70].dispatcher localJobs 361616
scalar FogSequentialForward.fog[70].dispatcher internalJobs 361640
scalar FogSequentialForward.fog[70].dispatcher externalJobs 28
scalar FogSequentialForward.fog[70].dispatcher remoteJobs 52
scalar FogSequentialForward.fog[70].dispatcher probeQueries 0
scalar FogSequentialForward.fog[70].dispatcher probeAnswers 0
scalar FogSequentialForward.fog[70].dispatcher droppedJobsSLA 0
scalar FogSequentialForward.fog[70].dispatcher jobs_class_1 361668
scalar FogSequentialForward.fog[70].dispatcher remoteJobs_class_1 52
scalar FogSequentialForward.fog[70].dispatcher localJobs_class_1 361616
scalar FogSequentialForward.fog[70].server[0] rho 0.55919033288956
scalar FogSequentialForward.fog[70].server[0] congestionRatio 0
scalar FogSequentialForward.fog[70].server[0] totalJobs 361616
scalar FogSequentialForward.fog[70].server[0] droppedJobsQueue 0
scalar FogSequentialForward.fog[70].server[0] droppedJobsTimout 0
scalar FogSequentialForward.fog[70].server[0] droppedJobsSLA 2
scalar FogSequentialForward.fog[70].server[0] droppedJobsTotal 2
scalar FogSequentialForward.fog[71].dispatcher localJobs 360718
scalar FogSequentialForward.fog[71].dispatcher internalJobs 360714
scalar FogSequentialForward.fog[71].dispatcher externalJobs 32
scalar FogSequentialForward.fog[71].dispatcher remoteJobs 28
scalar FogSequentialForward.fog[71].dispatcher probeQueries 0
scalar FogSequentialForward.fog[71].dispatcher probeAnswers 0
scalar FogSequentialForward.fog[71].dispatcher droppedJobsSLA 0
scalar FogSequentialForward.fog[71].dispatcher jobs_class_1 360746
[...]
scalar FogSequentialForward.fog[82].server[0] droppedJobsSLA 0
scalar FogSequentialForward.fog[82].server[0] droppedJobsTotal 0
scalar FogSequentialForward.fog[83].dispatcher localJobs 361115
scalar FogSequentialForward.fog[83].dispatcher internalJobs 361107
scalar FogSequentialForward.fog[83].dispatcher externalJobs 36
scalar FogSequentialForward.fog[83].dispatcher remoteJobs 28
scalar FogSequentialForward.fog[83].dispatcher probeQueries 0
scalar FogSequentialForward.fog[83].dispatcher probeAnswers 0
scalar FogSequentialForward.fog[83].dispatcher droppedJobsSLA 0
scalar FogSequentialForward.fog[83].dispatcher jobs_class_1 361143
scalar FogSequentialForward.fog[83].dispatcher remoteJobs_class_1 28
scalar FogSequentialForward.fog[83].dispatcher localJobs_class_1 361115
scalar FogSequentialForward.fog[83].server[0] rho 0.55840998888016
scalar FogSequentialForward.fog[83].server[0] congestionRatio 0
scalar FogSequentialForward.fog[83].server[0] totalJobs 361115
scalar FogSequentialForward.fog[83].server[0] droppedJobsQueue 0
scalar FogSequentialForward.fog[83].server[0] droppedJobsTimout 0
scalar FogSequentialForward.fog[83].server[0] droppedJobsSLA 1
scalar FogSequentialForward.fog[83].server[0] droppedJobsTotal 1
scalar FogSequentialForward.fog[84].dispatcher localJobs 359991
scalar FogSequentialForward.fog[84].dispatcher internalJobs 359990
scalar FogSequentialForward.fog[84].dispatcher externalJobs 32
scalar FogSequentialForward.fog[84].dispatcher remoteJobs 31
scalar FogSequentialForward.fog[84].dispatcher probeQueries 0
scalar FogSequentialForward.fog[84].dispatcher probeAnswers 0
scalar FogSequentialForward.fog[84].dispatcher droppedJobsSLA 0
scalar FogSequentialForward.fog[84].dispatcher jobs_class_1 360022
scalar FogSequentialForward.fog[84].dispatcher remoteJobs_class_1 31
scalar FogSequentialForward.fog[84].dispatcher localJobs_class_1 359991
scalar FogSequentialForward.fog[84].server[0] rho 0.55663657188416
scalar FogSequentialForward.fog[84].server[0] congestionRatio 0
scalar FogSequentialForward.fog[84].server[0] totalJobs 359991
scalar FogSequentialForward.fog[84].server[0] droppedJobsQueue 0
scalar FogSequentialForward.fog[84].server[0] droppedJobsTimout 0
scalar FogSequentialForward.fog[84].server[0] droppedJobsSLA 0
scalar FogSequentialForward.fog[84].server[0] droppedJobsTotal 0
scalar FogSequentialForward.fog[85].dispatcher localJobs 360536
scalar FogSequentialForward.fog[85].dispatcher internalJobs 360523
scalar FogSequentialForward.fog[85].dispatcher externalJobs 44
scalar FogSequentialForward.fog[85].dispatcher remoteJobs 31
scalar FogSequentialForward.fog[85].dispatcher probeQueries 0
scalar FogSequentialForward.fog[85].dispatcher probeAnswers 0
scalar FogSequentialForward.fog[85].dispatcher droppedJobsSLA 0
scalar FogSequentialForward.fog[85].dispatcher jobs_class_1 360567
scalar FogSequentialForward.fog[85].dispatcher remoteJobs_class_1 31
scalar FogSequentialForward.fog[85].dispatcher localJobs_class_1 360536
scalar FogSequentialForward.fog[85].server[0] rho 0.55754810571671
scalar FogSequentialForward.fog[85].server[0] congestionRatio 0
scalar FogSequentialForward.fog[85].server[0] totalJobs 360536
scalar FogSequentialForward.fog[85].server[0] droppedJobsQueue 0
scalar FogSequentialForward.fog[85].server[0] droppedJobsTimout 0
scalar FogSequentialForward.fog[85].server[0] droppedJobsSLA 0
scalar FogSequentialForward.fog[85].server[0] droppedJobsTotal 0
scalar FogSequentialForward.fog[86].dispatcher localJobs 361603
scalar FogSequentialForward.fog[86].dispatcher internalJobs 361624
scalar FogSequentialForward.fog[86].dispatcher externalJobs 29
scalar FogSequentialForward.fog[86].dispatcher remoteJobs 50
scalar FogSequentialForward.fog[86].dispatcher probeQueries 0
scalar FogSequentialForward.fog[86].dispatcher probeAnswers 0
scalar FogSequentialForward.fog[86].dispatcher droppedJobsSLA 0
scalar FogSequentialForward.fog[86].dispatcher jobs_class_1 361653
scalar FogSequentialForward.fog[86].dispatcher remoteJobs_class_1 50
scalar FogSequentialForward.fog[86].dispatcher localJobs_class_1 361603
scalar FogSequentialForward.fog[86].server[0] rho 0.55914926528931
scalar FogSequentialForward.fog[86].server[0] congestionRatio 0
scalar FogSequentialForward.fog[86].server[0] totalJobs 361603
scalar FogSequentialForward.fog[86].server[0] droppedJobsQueue 0
scalar FogSequentialForward.fog[86].server[0] droppedJobsTimout 0
scalar FogSequentialForward.fog[86].server[0] droppedJobsSLA 1
scalar FogSequentialForward.fog[86].server[0] droppedJobsTotal 1
scalar FogSequentialForward.fog[87].dispatcher localJobs 360935
scalar FogSequentialForward.fog[87].dispatcher internalJobs 360943
scalar FogSequentialForward.fog[87].dispatcher externalJobs 28
scalar FogSequentialForward.fog[87].dispatcher remoteJobs 36
scalar FogSequentialForward.fog[87].dispatcher probeQueries 0
scalar FogSequentialForward.fog[87].dispatcher probeAnswers 0
scalar FogSequentialForward.fog[87].dispatcher droppedJobsSLA 0
scalar FogSequentialForward.fog[87].dispatcher jobs_class_1 360971
scalar FogSequentialForward.fog[87].dispatcher remoteJobs_class_1 36
scalar FogSequentialForward.fog[87].dispatcher localJobs_class_1 360935
scalar FogSequentialForward.fog[87].server[0] rho 0.55812954902649
scalar FogSequentialForward.fog[87].server[0] congestionRatio 0
scalar FogSequentialForward.fog[87].server[0] totalJobs 360935
scalar FogSequentialForward.fog[87].server[0] droppedJobsQueue 0
scalar FogSequentialForward.fog[87].server[0] droppedJobsTimout 0
scalar FogSequentialForward.fog[87].server[0] droppedJobsSLA 0
scalar FogSequentialForward.fog[87].server[0] droppedJobsTotal 0
scalar FogSequentialForward.fog[88].dispatcher localJobs 360774
scalar FogSequentialForward.fog[88].dispatcher internalJobs 360775
scalar FogSequentialForward.fog[88].dispatcher externalJobs 28
scalar FogSequentialForward.fog[88].dispatcher remoteJobs 29
scalar FogSequentialForward.fog[88].dispatcher probeQueries 0
scalar FogSequentialForward.fog[88].dispatcher probeAnswers 0
scalar FogSequentialForward.fog[88].dispatcher droppedJobsSLA 0
scalar FogSequentialForward.fog[88].dispatcher jobs_class_1 360803
scalar FogSequentialForward.fog[88].dispatcher remoteJobs_class_1 29
scalar FogSequentialForward.fog[88].dispatcher localJobs_class_1 360774
scalar FogSequentialForward.fog[88].server[0] rho 0.55787932872772
scalar FogSequentialForward.fog[88].server[0] congestionRatio 0
scalar FogSequentialForward.fog[88].server[0] totalJobs 360774
scalar FogSequentialForward.fog[88].server[0] droppedJobsQueue 0
scalar FogSequentialForward.fog[88].server[0] droppedJobsTimout 0
scalar FogSequentialForward.fog[88].server[0] droppedJobsSLA 0
scalar FogSequentialForward.fog[88].server[0] droppedJobsTotal 0
scalar FogSequentialForward.fog[89].dispatcher localJobs 359734
scalar FogSequentialForward.fog[89].dispatcher internalJobs 359717
scalar FogSequentialForward.fog[89].dispatcher externalJobs 37
scalar FogSequentialForward.fog[89].dispatcher remoteJobs 20
scalar FogSequentialForward.fog[89].dispatcher probeQueries 0
scalar FogSequentialForward.fog[89].dispatcher probeAnswers 0
scalar FogSequentialForward.fog[89].dispatcher droppedJobsSLA 0
scalar FogSequentialForward.fog[89].dispatcher jobs_class_1 359754
scalar FogSequentialForward.fog[89].dispatcher remoteJobs_class_1 20
scalar FogSequentialForward.fog[89].dispatcher localJobs_class_1 359734
scalar FogSequentialForward.fog[89].server[0] rho 0.55625039339066
scalar FogSequentialForward.fog[89].server[0] congestionRatio 0
scalar FogSequentialForward.fog[89].server[0] totalJobs 359734
scalar FogSequentialForward.fog[89].server[0] droppedJobsQueue 0
scalar FogSequentialForward.fog[89].server[0] droppedJobsTimout 0
scalar FogSequentialForward.fog[89].server[0] droppedJobsSLA 0
scalar FogSequentialForward.fog[89].server[0] droppedJobsTotal 0
scalar FogSequentialForward.fog[90].dispatcher localJobs 361311
scalar FogSequentialForward.fog[90].dispatcher internalJobs 361309
scalar FogSequentialForward.fog[90].dispatcher externalJobs 34
scalar FogSequentialForward.fog[90].dispatcher remoteJobs 32
scalar FogSequentialForward.fog[90].dispatcher probeQueries 0
scalar FogSequentialForward.fog[90].dispatcher probeAnswers 0
scalar FogSequentialForward.fog[90].dispatcher droppedJobsSLA 0
scalar FogSequentialForward.fog[90].dispatcher jobs_class_1 361343
scalar FogSequentialForward.fog[90].dispatcher remoteJobs_class_1 32
scalar FogSequentialForward.fog[90].dispatcher localJobs_class_1 361311
scalar FogSequentialForward.fog[90].server[0] rho 0.5587192773819
scalar FogSequentialForward.fog[90].server[0] congestionRatio 0
scalar FogSequentialForward.fog[90].server[0] totalJobs 361311
scalar FogSequentialForward.fog[90].server[0] droppedJobsQueue 0
scalar FogSequentialForward.fog[90].server[0] droppedJobsTimout 0
scalar FogSequentialForward.fog[90].server[0] droppedJobsSLA 0
scalar FogSequentialForward.fog[90].server[0] droppedJobsTotal 0
scalar FogSequentialForward.fog[91].dispatcher localJobs 360315
scalar FogSequentialForward.fog[91].dispatcher internalJobs 360299
scalar FogSequentialForward.fog[91].dispatcher externalJobs 43
scalar FogSequentialForward.fog[91].dispatcher remoteJobs 27
scalar FogSequentialForward.fog[91].dispatcher probeQueries 0
scalar FogSequentialForward.fog[91].dispatcher probeAnswers 0
scalar FogSequentialForward.fog[91].dispatcher droppedJobsSLA 0
scalar FogSequentialForward.fog[91].dispatcher jobs_class_1 360342
scalar FogSequentialForward.fog[91].dispatcher remoteJobs_class_1 27
scalar FogSequentialForward.fog[91].dispatcher localJobs_class_1 360315
scalar FogSequentialForward.fog[91].server[0] rho 0.55715012550354
scalar FogSequentialForward.fog[91].server[0] congestionRatio 0
scalar FogSequentialForward.fog[91].server[0] totalJobs 360315
scalar FogSequentialForward.fog[91].server[0] droppedJobsQueue 0
scalar FogSequentialForward.fog[91].server[0] droppedJobsTimout 0
scalar FogSequentialForward.fog[91].server[0] droppedJobsSLA 1
scalar FogSequentialForward.fog[91].server[0] droppedJobsTotal 1
scalar FogSequentialForward.fog[92].dispatcher localJobs 360788
scalar FogSequentialForward.fog[92].dispatcher internalJobs 360794
scalar FogSequentialForward.fog[92].dispatcher externalJobs 41
scalar FogSequentialForward.fog[92].dispatcher remoteJobs 47
scalar FogSequentialForward.fog[92].dispatcher probeQueries 0
scalar FogSequentialForward.fog[92].dispatcher probeAnswers 0
scalar FogSequentialForward.fog[92].dispatcher droppedJobsSLA 0
scalar FogSequentialForward.fog[92].dispatcher jobs_class_1 360835
scalar FogSequentialForward.fog[92].dispatcher remoteJobs_class_1 47
scalar FogSequentialForward.fog[92].dispatcher localJobs_class_1 360788
scalar FogSequentialForward.fog[92].server[0] rho 0.55791181325912
scalar FogSequentialForward.fog[92].server[0] congestionRatio 0
scalar FogSequentialForward.fog[92].server[0] totalJobs 360788
scalar FogSequentialForward.fog[92].server[0] droppedJobsQueue 0
scalar FogSequentialForward.fog[92].server[0] droppedJobsTimout 0
scalar FogSequentialForward.fog[92].server[0] droppedJobsSLA 0
scalar FogSequentialForward.fog[92].server[0] droppedJobsTotal 0
scalar FogSequentialForward.fog[93].dispatcher localJobs 360499
scalar FogSequentialForward.fog[93].dispatcher internalJobs 360478
scalar FogSequentialForward.fog[93].dispatcher externalJobs 45
scalar FogSequentialForward.fog[93].dispatcher remoteJobs 24
scalar FogSequentialForward.fog[93].dispatcher probeQueries 0
scalar FogSequentialForward.fog[93].dispatcher probeAnswers 0
scalar FogSequentialForward.fog[93].dispatcher droppedJobsSLA 0
scalar FogSequentialForward.fog[93].dispatcher jobs_class_1 360523
scalar FogSequentialForward.fog[93].dispatcher remoteJobs_class_1 24
scalar FogSequentialForward.fog[93].dispatcher localJobs_class_1 360499
scalar FogSequentialForward.fog[93].server[0] rho 0.55742335319519
scalar FogSequentialForward.fog[93].server[0] congestionRatio 0
scalar FogSequentialForward.fog[93].server[0] totalJobs 360499
scalar FogSequentialForward.fog[93].server[0] droppedJobsQueue 0
scalar FogSequentialForward.fog[93].server[0] droppedJobsTimout 0
scalar FogSequentialForward.fog[93].server[0] droppedJobsSLA 0
scalar FogSequentialForward.fog[93].server[0] droppedJobsTotal 0
scalar FogSequentialForward.fog[94].dispatcher localJobs 361988
scalar FogSequentialForward.fog[94].dispatcher internalJobs 361974
scalar FogSequentialForward.fog[94].dispatcher externalJobs 36
scalar FogSequentialForward.fog[94].dispatcher remoteJobs 22
scalar FogSequentialForward.fog[94].dispatcher probeQueries 0
scalar FogSequentialForward.fog[94].dispatcher probeAnswers 0
scalar FogSequentialForward.fog[94].dispatcher droppedJobsSLA 0
scalar FogSequentialForward.fog[94].dispatcher jobs_class_1 362010
scalar FogSequentialForward.fog[94].dispatcher remoteJobs_class_1 22
scalar FogSequentialForward.fog[94].dispatcher localJobs_class_1 361988
scalar FogSequentialForward.fog[94].server[0] rho 0.55974847078323
scalar FogSequentialForward.fog[94].server[0] congestionRatio 0
scalar FogSequentialForward.fog[94].server[0] totalJobs 361988
scalar FogSequentialForward.fog[94].server[0] droppedJobsQueue 0
scalar FogSequentialForward.fog[94].server[0] droppedJobsTimout 0
scalar FogSequentialForward.fog[94].server[0] droppedJobsSLA 0
scalar FogSequentialForward.fog[94].server[0] droppedJobsTotal 0
scalar FogSequentialForward.fog[95].dispatcher localJobs 360637
scalar FogSequentialForward.fog[95].dispatcher internalJobs 360625
scalar FogSequentialForward.fog[95].dispatcher externalJobs 34
scalar FogSequentialForward.fog[95].dispatcher remoteJobs 22
scalar FogSequentialForward.fog[95].dispatcher probeQueries 0
scalar FogSequentialForward.fog[95].dispatcher probeAnswers 0
scalar FogSequentialForward.fog[95].dispatcher droppedJobsSLA 0
scalar FogSequentialForward.fog[95].dispatcher jobs_class_1 360659
scalar FogSequentialForward.fog[95].dispatcher remoteJobs_class_1 22
scalar FogSequentialForward.fog[95].dispatcher localJobs_class_1 360637
scalar FogSequentialForward.fog[95].server[0] rho 0.5576719045639
scalar FogSequentialForward.fog[95].server[0] congestionRatio 0
scalar FogSequentialForward.fog[95].server[0] totalJobs 360637
scalar FogSequentialForward.fog[95].server[0] droppedJobsQueue 0
scalar FogSequentialForward.fog[95].server[0] droppedJobsTimout 0
scalar FogSequentialForward.fog[95].server[0] droppedJobsSLA 1
scalar FogSequentialForward.fog[95].server[0] droppedJobsTotal 1
scalar FogSequentialForward.fog[96].dispatcher localJobs 360358
scalar FogSequentialForward.fog[96].dispatcher internalJobs 360356
scalar FogSequentialForward.fog[96].dispatcher externalJobs 23
scalar FogSequentialForward.fog[96].dispatcher remoteJobs 21
scalar FogSequentialForward.fog[96].dispatcher probeQueries 0
scalar FogSequentialForward.fog[96].dispatcher probeAnswers 0
scalar FogSequentialForward.fog[96].dispatcher droppedJobsSLA 0
scalar FogSequentialForward.fog[96].dispatcher jobs_class_1 360379
scalar FogSequentialForward.fog[96].dispatcher remoteJobs_class_1 21
scalar FogSequentialForward.fog[96].dispatcher localJobs_class_1 360358
scalar FogSequentialForward.fog[96].server[0] rho 0.55724543333054
scalar FogSequentialForward.fog[96].server[0] congestionRatio 0
scalar FogSequentialForward.fog[96].server[0] totalJobs 360358
scalar FogSequentialForward.fog[96].server[0] droppedJobsQueue 0
scalar FogSequentialForward.fog[96].server[0] droppedJobsTimout 0
scalar FogSequentialForward.fog[96].server[0] droppedJobsSLA 0
scalar FogSequentialForward.fog[96].server[0] droppedJobsTotal 0
scalar FogSequentialForward.fog[97].dispatcher localJobs 360215
scalar FogSequentialForward.fog[97].dispatcher internalJobs 360205
scalar FogSequentialForward.fog[97].dispatcher externalJobs 36
scalar FogSequentialForward.fog[97].dispatcher remoteJobs 26
scalar FogSequentialForward.fog[97].dispatcher probeQueries 0
scalar FogSequentialForward.fog[97].dispatcher probeAnswers 0
scalar FogSequentialForward.fog[97].dispatcher droppedJobsSLA 0
scalar FogSequentialForward.fog[97].dispatcher jobs_class_1 360241
scalar FogSequentialForward.fog[97].dispatcher remoteJobs_class_1 26
scalar FogSequentialForward.fog[97].dispatcher localJobs_class_1 360215
scalar FogSequentialForward.fog[97].server[0] rho 0.55700850486755
scalar FogSequentialForward.fog[97].server[0] congestionRatio 0
scalar FogSequentialForward.fog[97].server[0] totalJobs 360215
scalar FogSequentialForward.fog[97].server[0] droppedJobsQueue 0
scalar FogSequentialForward.fog[97].server[0] droppedJobsTimout 0
scalar FogSequentialForward.fog[97].server[0] droppedJobsSLA 0
scalar FogSequentialForward.fog[97].server[0] droppedJobsTotal 0
scalar FogSequentialForward.fog[98].dispatcher localJobs 361122
scalar FogSequentialForward.fog[98].dispatcher internalJobs 361122
scalar FogSequentialForward.fog[98].dispatcher externalJobs 29
scalar FogSequentialForward.fog[98].dispatcher remoteJobs 29
scalar FogSequentialForward.fog[98].dispatcher probeQueries 0
scalar FogSequentialForward.fog[98].dispatcher probeAnswers 0
scalar FogSequentialForward.fog[98].dispatcher droppedJobsSLA 0
scalar FogSequentialForward.fog[98].dispatcher jobs_class_1 361151
scalar FogSequentialForward.fog[98].dispatcher remoteJobs_class_1 29
scalar FogSequentialForward.fog[98].dispatcher localJobs_class_1 361122
scalar FogSequentialForward.fog[98].server[0] rho 0.55839496850967
scalar FogSequentialForward.fog[98].server[0] congestionRatio 0
scalar FogSequentialForward.fog[98].server[0] totalJobs 361122
scalar FogSequentialForward.fog[98].server[0] droppedJobsQueue 0
scalar FogSequentialForward.fog[98].server[0] droppedJobsTimout 0
scalar FogSequentialForward.fog[98].server[0] droppedJobsSLA 1
scalar FogSequentialForward.fog[98].server[0] droppedJobsTotal 1
scalar FogSequentialForward.fog[99].dispatcher localJobs 360097
scalar FogSequentialForward.fog[99].dispatcher internalJobs 360096
scalar FogSequentialForward.fog[99].dispatcher externalJobs 40
scalar FogSequentialForward.fog[99].dispatcher remoteJobs 39
scalar FogSequentialForward.fog[99].dispatcher probeQueries 0
scalar FogSequentialForward.fog[99].dispatcher probeAnswers 0
scalar FogSequentialForward.fog[99].dispatcher droppedJobsSLA 0
scalar FogSequentialForward.fog[99].dispatcher jobs_class_1 360136
scalar FogSequentialForward.fog[99].dispatcher remoteJobs_class_1 39
scalar FogSequentialForward.fog[99].dispatcher localJobs_class_1 360097
scalar FogSequentialForward.fog[99].server[0] rho 0.55680811405182
scalar FogSequentialForward.fog[99].server[0] congestionRatio 0
scalar FogSequentialForward.fog[99].server[0] totalJobs 360097
scalar FogSequentialForward.fog[99].server[0] droppedJobsQueue 0
scalar FogSequentialForward.fog[99].server[0] droppedJobsTimout 0
scalar FogSequentialForward.fog[99].server[0] droppedJobsSLA 1
scalar FogSequentialForward.fog[99].server[0] droppedJobsTotal 1
scalar FogSequentialForward.sink avg_responseTime_1 0.027218982272287
scalar FogSequentialForward.sink p90_responseTime_1 0.014738618592
scalar FogSequentialForward.sink med_responseTime_1 0.014738618592
scalar FogSequentialForward.sink avg_delayTime_1 0
scalar FogSequentialForward.sink p90_delayTime_1 0
scalar FogSequentialForward.sink med_delayTime_1 0
scalar FogSequentialForward.sink avg_queuingTime_1 0.010517409231132
scalar FogSequentialForward.sink p90_queuingTime_1 0
scalar FogSequentialForward.sink med_queuingTime_1 0
scalar FogSequentialForward.sink avg_serviceTime_1 0.016700027432609
scalar FogSequentialForward.sink p90_serviceTime_1 0.014638923562
scalar FogSequentialForward.sink med_serviceTime_1 0.014638923562
scalar FogSequentialForward.sink avg_balancerTime_1 1.5456085533802e-06
scalar FogSequentialForward.sink p90_balancerTime_1 0
scalar FogSequentialForward.sink med_balancerTime_1 0
scalar FogSequentialForward.sink avg_balancerCount_1 1.0000925514104
scalar FogSequentialForward.sink p90_balancerCount_1 1
scalar FogSequentialForward.sink med_balancerCount_1 1

