version 2
run Fog-mul_10-rho_09-thr_8-4-20190714-08:51:03-113279
attr configname Fog-mul_10-rho_09-thr_8
attr datetime 20190714-08:51:03
attr experiment Fog-mul_10-rho_09-thr_8
attr inifile FogSequentialForward.ini
attr iterationvars ""
attr iterationvarsf ""
attr measurement ""
attr network FogSequentialForward
attr processid 113279
attr repetition 4
attr replication #4
attr resultdir results
attr runnumber 4
attr seedset 4
param FogSequentialForward.proctimeMul 1.0
param FogSequentialForward.rho 0.9
param FogSequentialForward.fog[*].dispatcher.thr 8
param FogSequentialForward.nSources 100
param FogSequentialForward.rho 0.9
param FogSequentialForward.proctimeMul 1.0
param FogSequentialForward.source[*].appId 1
param FogSequentialForward.source[*].realTime true
param FogSequentialForward.source[*].multiHop true
param FogSequentialForward.fog[*].nServers 1
param FogSequentialForward.fog[*].dispatcher.fanOut 1
param FogSequentialForward.fog[*].server[*].timeSlice -1s
param FogSequentialForward.fog[*].server[*].timeout -1s
param FogSequentialForward.fog[*].server[*].capacity 20
param FogSequentialForward.fog[*].server[*].fifo true
param FogSequentialForward.fog[*].server[*].maxServiceTime -1s
param FogSequentialForward.fog[*].dispatcher.thr 1

scalar FogSequentialForward.fog[0].dispatcher localJobs 15110
scalar FogSequentialForward.fog[0].dispatcher internalJobs 16338
scalar FogSequentialForward.fog[0].dispatcher externalJobs 5775449
scalar FogSequentialForward.fog[0].dispatcher remoteJobs 5775408
scalar FogSequentialForward.fog[0].dispatcher probeQueries 0
scalar FogSequentialForward.fog[0].dispatcher probeAnswers 0
scalar FogSequentialForward.fog[0].dispatcher droppedJobsSLA 1269
scalar FogSequentialForward.fog[0].dispatcher jobs_class_1 5791787
scalar FogSequentialForward.fog[0].dispatcher remoteJobs_class_1 5775408
scalar FogSequentialForward.fog[0].dispatcher localJobs_class_1 15110
scalar FogSequentialForward.fog[0].dispatcher droppedJobsSLA_class_1 1269
scalar FogSequentialForward.fog[0].server[0] rho 1
scalar FogSequentialForward.fog[0].server[0] congestionRatio 0
scalar FogSequentialForward.fog[0].server[0] totalJobs 15110
scalar FogSequentialForward.fog[0].server[0] droppedJobsQueue 891
scalar FogSequentialForward.fog[0].server[0] droppedJobsTimout 0
scalar FogSequentialForward.fog[0].server[0] droppedJobsSLA 9396
scalar FogSequentialForward.fog[0].server[0] droppedJobsTotal 10287
scalar FogSequentialForward.fog[1].dispatcher localJobs 15039
scalar FogSequentialForward.fog[1].dispatcher internalJobs 16285
scalar FogSequentialForward.fog[1].dispatcher externalJobs 5777058
scalar FogSequentialForward.fog[1].dispatcher remoteJobs 5777125
scalar FogSequentialForward.fog[1].dispatcher probeQueries 0
scalar FogSequentialForward.fog[1].dispatcher probeAnswers 0
scalar FogSequentialForward.fog[1].dispatcher droppedJobsSLA 1179
scalar FogSequentialForward.fog[1].dispatcher jobs_class_1 5793343
scalar FogSequentialForward.fog[1].dispatcher remoteJobs_class_1 5777125
scalar FogSequentialForward.fog[1].dispatcher localJobs_class_1 15039
scalar FogSequentialForward.fog[1].dispatcher droppedJobsSLA_class_1 1179
scalar FogSequentialForward.fog[1].server[0] rho 0.99999988079071
scalar FogSequentialForward.fog[1].server[0] congestionRatio 0
scalar FogSequentialForward.fog[1].server[0] totalJobs 15039
scalar FogSequentialForward.fog[1].server[0] droppedJobsQueue 887
scalar FogSequentialForward.fog[1].server[0] droppedJobsTimout 0
scalar FogSequentialForward.fog[1].server[0] droppedJobsSLA 9335
scalar FogSequentialForward.fog[1].server[0] droppedJobsTotal 10222
scalar FogSequentialForward.fog[2].dispatcher localJobs 15014
scalar FogSequentialForward.fog[2].dispatcher internalJobs 16236
scalar FogSequentialForward.fog[2].dispatcher externalJobs 5771722
scalar FogSequentialForward.fog[2].dispatcher remoteJobs 5771753
scalar FogSequentialForward.fog[2].dispatcher probeQueries 0
scalar FogSequentialForward.fog[2].dispatcher probeAnswers 0
scalar FogSequentialForward.fog[2].dispatcher droppedJobsSLA 1191
scalar FogSequentialForward.fog[2].dispatcher jobs_class_1 5787958
scalar FogSequentialForward.fog[2].dispatcher remoteJobs_class_1 5771753
scalar FogSequentialForward.fog[2].dispatcher localJobs_class_1 15014
scalar FogSequentialForward.fog[2].dispatcher droppedJobsSLA_class_1 1191
scalar FogSequentialForward.fog[2].server[0] rho 0.99999988079071
scalar FogSequentialForward.fog[2].server[0] congestionRatio 0
scalar FogSequentialForward.fog[2].server[0] totalJobs 15014
scalar FogSequentialForward.fog[2].server[0] droppedJobsQueue 881
scalar FogSequentialForward.fog[2].server[0] droppedJobsTimout 0
scalar FogSequentialForward.fog[2].server[0] droppedJobsSLA 9379
scalar FogSequentialForward.fog[2].server[0] droppedJobsTotal 10260
scalar FogSequentialForward.fog[3].dispatcher localJobs 14984
scalar FogSequentialForward.fog[3].dispatcher internalJobs 16117
scalar FogSequentialForward.fog[3].dispatcher externalJobs 5771172
scalar FogSequentialForward.fog[3].dispatcher remoteJobs 5771046
scalar FogSequentialForward.fog[3].dispatcher probeQueries 0
scalar FogSequentialForward.fog[3].dispatcher probeAnswers 0
scalar FogSequentialForward.fog[3].dispatcher droppedJobsSLA 1259
scalar FogSequentialForward.fog[3].dispatcher jobs_class_1 5787289
scalar FogSequentialForward.fog[3].dispatcher remoteJobs_class_1 5771046
scalar FogSequentialForward.fog[3].dispatcher localJobs_class_1 14984
scalar FogSequentialForward.fog[3].dispatcher droppedJobsSLA_class_1 1259
scalar FogSequentialForward.fog[3].server[0] rho 0.99999994039536
scalar FogSequentialForward.fog[3].server[0] congestionRatio 0
scalar FogSequentialForward.fog[3].server[0] totalJobs 14984
scalar FogSequentialForward.fog[3].server[0] droppedJobsQueue 884
scalar FogSequentialForward.fog[3].server[0] droppedJobsTimout 0
scalar FogSequentialForward.fog[3].server[0] droppedJobsSLA 9305
scalar FogSequentialForward.fog[3].server[0] droppedJobsTotal 10189
scalar FogSequentialForward.fog[4].dispatcher localJobs 14918
scalar FogSequentialForward.fog[4].dispatcher internalJobs 16111
scalar FogSequentialForward.fog[4].dispatcher externalJobs 5768590
scalar FogSequentialForward.fog[4].dispatcher remoteJobs 5768609
scalar FogSequentialForward.fog[4].dispatcher probeQueries 0
scalar FogSequentialForward.fog[4].dispatcher probeAnswers 0
scalar FogSequentialForward.fog[4].dispatcher droppedJobsSLA 1174
scalar FogSequentialForward.fog[4].dispatcher jobs_class_1 5784701
scalar FogSequentialForward.fog[4].dispatcher remoteJobs_class_1 5768609
scalar FogSequentialForward.fog[4].dispatcher localJobs_class_1 14918
scalar FogSequentialForward.fog[4].dispatcher droppedJobsSLA_class_1 1174
scalar FogSequentialForward.fog[4].server[0] rho 0.99999988079071
scalar FogSequentialForward.fog[4].server[0] congestionRatio 0
scalar FogSequentialForward.fog[4].server[0] totalJobs 14918
scalar FogSequentialForward.fog[4].server[0] droppedJobsQueue 878
scalar FogSequentialForward.fog[4].server[0] droppedJobsTimout 0
scalar FogSequentialForward.fog[4].server[0] droppedJobsSLA 9203
scalar FogSequentialForward.fog[4].server[0] droppedJobsTotal 10081
scalar FogSequentialForward.fog[5].dispatcher localJobs 14948
scalar FogSequentialForward.fog[5].dispatcher internalJobs 16025
scalar FogSequentialForward.fog[5].dispatcher externalJobs 5773388
scalar FogSequentialForward.fog[5].dispatcher remoteJobs 5773227
scalar FogSequentialForward.fog[5].dispatcher probeQueries 0
scalar FogSequentialForward.fog[5].dispatcher probeAnswers 0
scalar FogSequentialForward.fog[5].dispatcher droppedJobsSLA 1238
scalar FogSequentialForward.fog[5].dispatcher jobs_class_1 5789413
scalar FogSequentialForward.fog[5].dispatcher remoteJobs_class_1 5773227
scalar FogSequentialForward.fog[5].dispatcher localJobs_class_1 14948
scalar FogSequentialForward.fog[5].dispatcher droppedJobsSLA_class_1 1238
scalar FogSequentialForward.fog[5].server[0] rho 0.99999982118607
scalar FogSequentialForward.fog[5].server[0] congestionRatio 0
scalar FogSequentialForward.fog[5].server[0] totalJobs 14948
scalar FogSequentialForward.fog[5].server[0] droppedJobsQueue 879
scalar FogSequentialForward.fog[5].server[0] droppedJobsTimout 0
scalar FogSequentialForward.fog[5].server[0] droppedJobsSLA 9228
scalar FogSequentialForward.fog[5].server[0] droppedJobsTotal 10107
scalar FogSequentialForward.fog[6].dispatcher localJobs 14940
scalar FogSequentialForward.fog[6].dispatcher internalJobs 16073
scalar FogSequentialForward.fog[6].dispatcher externalJobs 5774309
scalar FogSequentialForward.fog[6].dispatcher remoteJobs 5774231
scalar FogSequentialForward.fog[6].dispatcher probeQueries 0
scalar FogSequentialForward.fog[6].dispatcher probeAnswers 0
scalar FogSequentialForward.fog[6].dispatcher droppedJobsSLA 1211
scalar FogSequentialForward.fog[6].dispatcher jobs_class_1 5790382
scalar FogSequentialForward.fog[6].dispatcher remoteJobs_class_1 5774231
scalar FogSequentialForward.fog[6].dispatcher localJobs_class_1 14940
scalar FogSequentialForward.fog[6].dispatcher droppedJobsSLA_class_1 1211
scalar FogSequentialForward.fog[6].server[0] rho 1
scalar FogSequentialForward.fog[6].server[0] congestionRatio 0
scalar FogSequentialForward.fog[6].server[0] totalJobs 14940
scalar FogSequentialForward.fog[6].server[0] droppedJobsQueue 882
scalar FogSequentialForward.fog[6].server[0] droppedJobsTimout 0
scalar FogSequentialForward.fog[6].server[0] droppedJobsSLA 9262
scalar FogSequentialForward.fog[6].server[0] droppedJobsTotal 10144
scalar FogSequentialForward.fog[7].dispatcher localJobs 14961
scalar FogSequentialForward.fog[7].dispatcher internalJobs 16119
scalar FogSequentialForward.fog[7].dispatcher externalJobs 5769894
scalar FogSequentialForward.fog[7].dispatcher remoteJobs 5769765
scalar FogSequentialForward.fog[7].dispatcher probeQueries 0
scalar FogSequentialForward.fog[7].dispatcher probeAnswers 0
scalar FogSequentialForward.fog[7].dispatcher droppedJobsSLA 1287
scalar FogSequentialForward.fog[7].dispatcher jobs_class_1 5786013
scalar FogSequentialForward.fog[7].dispatcher remoteJobs_class_1 5769765
scalar FogSequentialForward.fog[7].dispatcher localJobs_class_1 14961
scalar FogSequentialForward.fog[7].dispatcher droppedJobsSLA_class_1 1287
scalar FogSequentialForward.fog[7].server[0] rho 0.99999934434891
scalar FogSequentialForward.fog[7].server[0] congestionRatio 0
scalar FogSequentialForward.fog[7].server[0] totalJobs 14961
scalar FogSequentialForward.fog[7].server[0] droppedJobsQueue 882
scalar FogSequentialForward.fog[7].server[0] droppedJobsTimout 0
scalar FogSequentialForward.fog[7].server[0] droppedJobsSLA 9307
scalar FogSequentialForward.fog[7].server[0] droppedJobsTotal 10189
scalar FogSequentialForward.fog[8].dispatcher localJobs 15138
scalar FogSequentialForward.fog[8].dispatcher internalJobs 16479
scalar FogSequentialForward.fog[8].dispatcher externalJobs 5774795
scalar FogSequentialForward.fog[8].dispatcher remoteJobs 5774925
scalar FogSequentialForward.fog[8].dispatcher probeQueries 0
scalar FogSequentialForward.fog[8].dispatcher probeAnswers 0
scalar FogSequentialForward.fog[8].dispatcher droppedJobsSLA 1211
scalar FogSequentialForward.fog[8].dispatcher jobs_class_1 5791274
scalar FogSequentialForward.fog[8].dispatcher remoteJobs_class_1 5774925
scalar FogSequentialForward.fog[8].dispatcher localJobs_class_1 15138
scalar FogSequentialForward.fog[8].dispatcher droppedJobsSLA_class_1 1211
scalar FogSequentialForward.fog[8].server[0] rho 0.99989783763885
scalar FogSequentialForward.fog[8].server[0] congestionRatio 0
scalar FogSequentialForward.fog[8].server[0] totalJobs 15138
scalar FogSequentialForward.fog[8].server[0] droppedJobsQueue 891
scalar FogSequentialForward.fog[8].server[0] droppedJobsTimout 0
scalar FogSequentialForward.fog[8].server[0] droppedJobsSLA 9452
scalar FogSequentialForward.fog[8].server[0] droppedJobsTotal 10343
scalar FogSequentialForward.fog[9].dispatcher localJobs 15049
scalar FogSequentialForward.fog[9].dispatcher internalJobs 16213
scalar FogSequentialForward.fog[9].dispatcher externalJobs 5774046
scalar FogSequentialForward.fog[9].dispatcher remoteJobs 5773969
scalar FogSequentialForward.fog[9].dispatcher probeQueries 0
scalar FogSequentialForward.fog[9].dispatcher probeAnswers 0
scalar FogSequentialForward.fog[9].dispatcher droppedJobsSLA 1241
scalar FogSequentialForward.fog[9].dispatcher jobs_class_1 5790259
scalar FogSequentialForward.fog[9].dispatcher remoteJobs_class_1 5773969
scalar FogSequentialForward.fog[9].dispatcher localJobs_class_1 15049
scalar FogSequentialForward.fog[9].dispatcher droppedJobsSLA_class_1 1241
scalar FogSequentialForward.fog[9].server[0] rho 0.99999988079071
scalar FogSequentialForward.fog[9].server[0] congestionRatio 0
scalar FogSequentialForward.fog[9].server[0] totalJobs 15049
scalar FogSequentialForward.fog[9].server[0] droppedJobsQueue 888
scalar FogSequentialForward.fog[9].server[0] droppedJobsTimout 0
scalar FogSequentialForward.fog[9].server[0] droppedJobsSLA 9382
scalar FogSequentialForward.fog[9].server[0] droppedJobsTotal 10270
scalar FogSequentialForward.fog[10].dispatcher localJobs 15023
scalar FogSequentialForward.fog[10].dispatcher internalJobs 16209
scalar FogSequentialForward.fog[10].dispatcher externalJobs 5768030
scalar FogSequentialForward.fog[10].dispatcher remoteJobs 5768029
scalar FogSequentialForward.fog[10].dispatcher probeQueries 0
scalar FogSequentialForward.fog[10].dispatcher probeAnswers 0
scalar FogSequentialForward.fog[10].dispatcher droppedJobsSLA 1187
scalar FogSequentialForward.fog[10].dispatcher jobs_class_1 5784239
scalar FogSequentialForward.fog[10].dispatcher remoteJobs_class_1 5768029
scalar FogSequentialForward.fog[10].dispatcher localJobs_class_1 15023
scalar FogSequentialForward.fog[10].dispatcher droppedJobsSLA_class_1 1187
scalar FogSequentialForward.fog[10].server[0] rho 0.99999976158142
scalar FogSequentialForward.fog[10].server[0] congestionRatio 0
scalar FogSequentialForward.fog[10].server[0] totalJobs 15023
scalar FogSequentialForward.fog[10].server[0] droppedJobsQueue 889
scalar FogSequentialForward.fog[10].server[0] droppedJobsTimout 0
scalar FogSequentialForward.fog[10].server[0] droppedJobsSLA 9339
scalar FogSequentialForward.fog[10].server[0] droppedJobsTotal 10228
scalar FogSequentialForward.fog[11].dispatcher localJobs 15009
scalar FogSequentialForward.fog[11].dispatcher internalJobs 16181
scalar FogSequentialForward.fog[11].dispatcher externalJobs 5773922
scalar FogSequentialForward.fog[11].dispatcher remoteJobs 5773836
scalar FogSequentialForward.fog[11].dispatcher probeQueries 0
scalar FogSequentialForward.fog[11].dispatcher probeAnswers 0
scalar FogSequentialForward.fog[11].dispatcher droppedJobsSLA 1258
scalar FogSequentialForward.fog[11].dispatcher jobs_class_1 5790103
scalar FogSequentialForward.fog[11].dispatcher remoteJobs_class_1 5773836
scalar FogSequentialForward.fog[11].dispatcher localJobs_class_1 15009
scalar FogSequentialForward.fog[11].dispatcher droppedJobsSLA_class_1 1258
scalar FogSequentialForward.fog[11].server[0] rho 0.99999994039536
scalar FogSequentialForward.fog[11].server[0] congestionRatio 0
scalar FogSequentialForward.fog[11].server[0] totalJobs 15009
scalar FogSequentialForward.fog[11].server[0] droppedJobsQueue 884
scalar FogSequentialForward.fog[11].server[0] droppedJobsTimout 0
scalar FogSequentialForward.fog[11].server[0] droppedJobsSLA 9329
scalar FogSequentialForward.fog[11].server[0] droppedJobsTotal 10213
scalar FogSequentialForward.fog[12].dispatcher localJobs 14956
scalar FogSequentialForward.fog[12].dispatcher internalJobs 16194
scalar FogSequentialForward.fog[12].dispatcher externalJobs 5775160
scalar FogSequentialForward.fog[12].dispatcher remoteJobs 5775211
scalar FogSequentialForward.fog[12].dispatcher probeQueries 0
scalar FogSequentialForward.fog[12].dispatcher probeAnswers 0
scalar FogSequentialForward.fog[12].dispatcher droppedJobsSLA 1187
scalar FogSequentialForward.fog[12].dispatcher jobs_class_1 5791354
scalar FogSequentialForward.fog[12].dispatcher remoteJobs_class_1 5775211
scalar FogSequentialForward.fog[12].dispatcher localJobs_class_1 14956
scalar FogSequentialForward.fog[12].dispatcher droppedJobsSLA_class_1 1187
scalar FogSequentialForward.fog[12].server[0] rho 0.99996054172516
scalar FogSequentialForward.fog[12].server[0] congestionRatio 0
scalar FogSequentialForward.fog[12].server[0] totalJobs 14956
scalar FogSequentialForward.fog[12].server[0] droppedJobsQueue 880
scalar FogSequentialForward.fog[12].server[0] droppedJobsTimout 0
scalar FogSequentialForward.fog[12].server[0] droppedJobsSLA 9279
scalar FogSequentialForward.fog[12].server[0] droppedJobsTotal 10159
scalar FogSequentialForward.fog[13].dispatcher localJobs 15028
scalar FogSequentialForward.fog[13].dispatcher internalJobs 16328
scalar FogSequentialForward.fog[13].dispatcher externalJobs 5769445
scalar FogSequentialForward.fog[13].dispatcher remoteJobs 5769551
scalar FogSequentialForward.fog[13].dispatcher probeQueries 0
scalar FogSequentialForward.fog[13].dispatcher probeAnswers 0
scalar FogSequentialForward.fog[13].dispatcher droppedJobsSLA 1194
scalar FogSequentialForward.fog[13].dispatcher jobs_class_1 5785773
scalar FogSequentialForward.fog[13].dispatcher remoteJobs_class_1 5769551
scalar FogSequentialForward.fog[13].dispatcher localJobs_class_1 15028
scalar FogSequentialForward.fog[13].dispatcher droppedJobsSLA_class_1 1194
scalar FogSequentialForward.fog[13].server[0] rho 0.99999982118607
scalar FogSequentialForward.fog[13].server[0] congestionRatio 0
scalar FogSequentialForward.fog[13].server[0] totalJobs 15028
scalar FogSequentialForward.fog[13].server[0] droppedJobsQueue 887
scalar FogSequentialForward.fog[13].server[0] droppedJobsTimout 0
scalar FogSequentialForward.fog[13].server[0] droppedJobsSLA 9343
scalar FogSequentialForward.fog[13].server[0] droppedJobsTotal 10230
scalar FogSequentialForward.fog[14].dispatcher localJobs 15027
scalar FogSequentialForward.fog[14].dispatcher internalJobs 16208
scalar FogSequentialForward.fog[14].dispatcher externalJobs 5773738
scalar FogSequentialForward.fog[14].dispatcher remoteJobs 5773690
scalar FogSequentialForward.fog[14].dispatcher probeQueries 0
scalar FogSequentialForward.fog[14].dispatcher probeAnswers 0
scalar FogSequentialForward.fog[14].dispatcher droppedJobsSLA 1229
scalar FogSequentialForward.fog[14].dispatcher jobs_class_1 5789946
scalar FogSequentialForward.fog[14].dispatcher remoteJobs_class_1 5773690
scalar FogSequentialForward.fog[14].dispatcher localJobs_class_1 15027
scalar FogSequentialForward.fog[14].dispatcher droppedJobsSLA_class_1 1229
scalar FogSequentialForward.fog[14].server[0] rho 0.99999994039536
scalar FogSequentialForward.fog[14].server[0] congestionRatio 0
scalar FogSequentialForward.fog[14].server[0] totalJobs 15027
scalar FogSequentialForward.fog[14].server[0] droppedJobsQueue 884
scalar FogSequentialForward.fog[14].server[0] droppedJobsTimout 0
scalar FogSequentialForward.fog[14].server[0] droppedJobsSLA 9368
scalar FogSequentialForward.fog[14].server[0] droppedJobsTotal 10252
scalar FogSequentialForward.fog[15].dispatcher localJobs 15014
scalar FogSequentialForward.fog[15].dispatcher internalJobs 16158
scalar FogSequentialForward.fog[15].dispatcher externalJobs 5768959
scalar FogSequentialForward.fog[15].dispatcher remoteJobs 5768984
scalar FogSequentialForward.fog[15].dispatcher probeQueries 0
scalar FogSequentialForward.fog[15].dispatcher probeAnswers 0
scalar FogSequentialForward.fog[15].dispatcher droppedJobsSLA 1119
scalar FogSequentialForward.fog[15].dispatcher jobs_class_1 5785117
scalar FogSequentialForward.fog[15].dispatcher remoteJobs_class_1 5768984
scalar FogSequentialForward.fog[15].dispatcher localJobs_class_1 15014
scalar FogSequentialForward.fog[15].dispatcher droppedJobsSLA_class_1 1119
scalar FogSequentialForward.fog[15].server[0] rho 1
scalar FogSequentialForward.fog[15].server[0] congestionRatio 0
scalar FogSequentialForward.fog[15].server[0] totalJobs 15014
scalar FogSequentialForward.fog[15].server[0] droppedJobsQueue 885
scalar FogSequentialForward.fog[15].server[0] droppedJobsTimout 0
scalar FogSequentialForward.fog[15].server[0] droppedJobsSLA 9308
scalar FogSequentialForward.fog[15].server[0] droppedJobsTotal 10193
scalar FogSequentialForward.fog[16].dispatcher localJobs 14976
scalar FogSequentialForward.fog[16].dispatcher internalJobs 16111
scalar FogSequentialForward.fog[16].dispatcher externalJobs 5773543
scalar FogSequentialForward.fog[16].dispatcher remoteJobs 5773485
scalar FogSequentialForward.fog[16].dispatcher probeQueries 0
scalar FogSequentialForward.fog[16].dispatcher probeAnswers 0
scalar FogSequentialForward.fog[16].dispatcher droppedJobsSLA 1193
scalar FogSequentialForward.fog[16].dispatcher jobs_class_1 5789654
scalar FogSequentialForward.fog[16].dispatcher remoteJobs_class_1 5773485
scalar FogSequentialForward.fog[16].dispatcher localJobs_class_1 14976
scalar FogSequentialForward.fog[16].dispatcher droppedJobsSLA_class_1 1193
scalar FogSequentialForward.fog[16].server[0] rho 0.99999988079071
scalar FogSequentialForward.fog[16].server[0] congestionRatio 0
scalar FogSequentialForward.fog[16].server[0] totalJobs 14976
scalar FogSequentialForward.fog[16].server[0] droppedJobsQueue 879
scalar FogSequentialForward.fog[16].server[0] droppedJobsTimout 0
scalar FogSequentialForward.fog[16].server[0] droppedJobsSLA 9304
scalar FogSequentialForward.fog[16].server[0] droppedJobsTotal 10183
scalar FogSequentialForward.fog[17].dispatcher localJobs 14920
scalar FogSequentialForward.fog[17].dispatcher internalJobs 16372
scalar FogSequentialForward.fog[17].dispatcher externalJobs 5771033
scalar FogSequentialForward.fog[17].dispatcher remoteJobs 5771342
scalar FogSequentialForward.fog[17].dispatcher probeQueries 0
scalar FogSequentialForward.fog[17].dispatcher probeAnswers 0
scalar FogSequentialForward.fog[17].dispatcher droppedJobsSLA 1143
scalar FogSequentialForward.fog[17].dispatcher jobs_class_1 5787405
scalar FogSequentialForward.fog[17].dispatcher remoteJobs_class_1 5771342
scalar FogSequentialForward.fog[17].dispatcher localJobs_class_1 14920
scalar FogSequentialForward.fog[17].dispatcher droppedJobsSLA_class_1 1143
scalar FogSequentialForward.fog[17].server[0] rho 1
scalar FogSequentialForward.fog[17].server[0] congestionRatio 0
scalar FogSequentialForward.fog[17].server[0] totalJobs 14920
scalar FogSequentialForward.fog[17].server[0] droppedJobsQueue 878
scalar FogSequentialForward.fog[17].server[0] droppedJobsTimout 0
scalar FogSequentialForward.fog[17].server[0] droppedJobsSLA 9311
scalar FogSequentialForward.fog[17].server[0] droppedJobsTotal 10189
scalar FogSequentialForward.fog[18].dispatcher localJobs 15044
scalar FogSequentialForward.fog[18].dispatcher internalJobs 16474
scalar FogSequentialForward.fog[18].dispatcher externalJobs 5767168
scalar FogSequentialForward.fog[18].dispatcher remoteJobs 5767442
scalar FogSequentialForward.fog[18].dispatcher probeQueries 0
scalar FogSequentialForward.fog[18].dispatcher probeAnswers 0
scalar FogSequentialForward.fog[18].dispatcher droppedJobsSLA 1156
scalar FogSequentialForward.fog[18].dispatcher jobs_class_1 5783642
scalar FogSequentialForward.fog[18].dispatcher remoteJobs_class_1 5767442
scalar FogSequentialForward.fog[18].dispatcher localJobs_class_1 15044
scalar FogSequentialForward.fog[18].dispatcher droppedJobsSLA_class_1 1156
scalar FogSequentialForward.fog[18].server[0] rho 1
scalar FogSequentialForward.fog[18].server[0] congestionRatio 0
scalar FogSequentialForward.fog[18].server[0] totalJobs 15044
scalar FogSequentialForward.fog[18].server[0] droppedJobsQueue 887
scalar FogSequentialForward.fog[18].server[0] droppedJobsTimout 0
scalar FogSequentialForward.fog[18].server[0] droppedJobsSLA 9347
scalar FogSequentialForward.fog[18].server[0] droppedJobsTotal 10234
scalar FogSequentialForward.fog[19].dispatcher localJobs 15053
scalar FogSequentialForward.fog[19].dispatcher internalJobs 16402
scalar FogSequentialForward.fog[19].dispatcher externalJobs 5772000
scalar FogSequentialForward.fog[19].dispatcher remoteJobs 5772107
scalar FogSequentialForward.fog[19].dispatcher probeQueries 0
scalar FogSequentialForward.fog[19].dispatcher probeAnswers 0
scalar FogSequentialForward.fog[19].dispatcher droppedJobsSLA 1242
scalar FogSequentialForward.fog[19].dispatcher jobs_class_1 5788402
scalar FogSequentialForward.fog[19].dispatcher remoteJobs_class_1 5772107
scalar FogSequentialForward.fog[19].dispatcher localJobs_class_1 15053
scalar FogSequentialForward.fog[19].dispatcher droppedJobsSLA_class_1 1242
scalar FogSequentialForward.fog[19].server[0] rho 0.99998933076859
scalar FogSequentialForward.fog[19].server[0] congestionRatio 0
scalar FogSequentialForward.fog[19].server[0] totalJobs 15053
scalar FogSequentialForward.fog[19].server[0] droppedJobsQueue 885
scalar FogSequentialForward.fog[19].server[0] droppedJobsTimout 0
scalar FogSequentialForward.fog[19].server[0] droppedJobsSLA 9331
scalar FogSequentialForward.fog[19].server[0] droppedJobsTotal 10216
scalar FogSequentialForward.fog[20].dispatcher localJobs 14944
scalar FogSequentialForward.fog[20].dispatcher internalJobs 16332
scalar FogSequentialForward.fog[20].dispatcher externalJobs 5768925
scalar FogSequentialForward.fog[20].dispatcher remoteJobs 5769095
scalar FogSequentialForward.fog[20].dispatcher probeQueries 0
scalar FogSequentialForward.fog[20].dispatcher probeAnswers 0
scalar FogSequentialForward.fog[20].dispatcher droppedJobsSLA 1218
scalar FogSequentialForward.fog[20].dispatcher jobs_class_1 5785257
scalar FogSequentialForward.fog[20].dispatcher remoteJobs_class_1 5769095
scalar FogSequentialForward.fog[20].dispatcher localJobs_class_1 14944
scalar FogSequentialForward.fog[20].dispatcher droppedJobsSLA_class_1 1218
scalar FogSequentialForward.fog[20].server[0] rho 0.99998641014099
scalar FogSequentialForward.fog[20].server[0] congestionRatio 0
scalar FogSequentialForward.fog[20].server[0] totalJobs 14944
scalar FogSequentialForward.fog[20].server[0] droppedJobsQueue 883
scalar FogSequentialForward.fog[20].server[0] droppedJobsTimout 0
scalar FogSequentialForward.fog[20].server[0] droppedJobsSLA 9268
scalar FogSequentialForward.fog[20].server[0] droppedJobsTotal 10151
scalar FogSequentialForward.fog[21].dispatcher localJobs 15041
scalar FogSequentialForward.fog[21].dispatcher internalJobs 16226
scalar FogSequentialForward.fog[21].dispatcher externalJobs 5772175
scalar FogSequentialForward.fog[21].dispatcher remoteJobs 5772191
scalar FogSequentialForward.fog[21].dispatcher probeQueries 0
scalar FogSequentialForward.fog[21].dispatcher probeAnswers 0
scalar FogSequentialForward.fog[21].dispatcher droppedJobsSLA 1169
scalar FogSequentialForward.fog[21].dispatcher jobs_class_1 5788401
scalar FogSequentialForward.fog[21].dispatcher remoteJobs_class_1 5772191
scalar FogSequentialForward.fog[21].dispatcher localJobs_class_1 15041
scalar FogSequentialForward.fog[21].dispatcher droppedJobsSLA_class_1 1169
scalar FogSequentialForward.fog[21].server[0] rho 1
scalar FogSequentialForward.fog[21].server[0] congestionRatio 0
scalar FogSequentialForward.fog[21].server[0] totalJobs 15041
scalar FogSequentialForward.fog[21].server[0] droppedJobsQueue 886
scalar FogSequentialForward.fog[21].server[0] droppedJobsTimout 0
scalar FogSequentialForward.fog[21].server[0] droppedJobsSLA 9387
scalar FogSequentialForward.fog[21].server[0] droppedJobsTotal 10273
scalar FogSequentialForward.fog[22].dispatcher localJobs 15025
scalar FogSequentialForward.fog[22].dispatcher internalJobs 16284
scalar FogSequentialForward.fog[22].dispatcher externalJobs 5772992
scalar FogSequentialForward.fog[22].dispatcher remoteJobs 5773075
scalar FogSequentialForward.fog[22].dispatcher probeQueries 0
scalar FogSequentialForward.fog[22].dispatcher probeAnswers 0
scalar FogSequentialForward.fog[22].dispatcher droppedJobsSLA 1176
scalar FogSequentialForward.fog[22].dispatcher jobs_class_1 5789276
scalar FogSequentialForward.fog[22].dispatcher remoteJobs_class_1 5773075
scalar FogSequentialForward.fog[22].dispatcher localJobs_class_1 15025
scalar FogSequentialForward.fog[22].dispatcher droppedJobsSLA_class_1 1176
scalar FogSequentialForward.fog[22].server[0] rho 0.99999934434891
scalar FogSequentialForward.fog[22].server[0] congestionRatio 0
scalar FogSequentialForward.fog[22].server[0] totalJobs 15025
scalar FogSequentialForward.fog[22].server[0] droppedJobsQueue 883
scalar FogSequentialForward.fog[22].server[0] droppedJobsTimout 0
scalar FogSequentialForward.fog[22].server[0] droppedJobsSLA 9329
scalar FogSequentialForward.fog[22].server[0] droppedJobsTotal 10212
scalar FogSequentialForward.fog[23].dispatcher localJobs 15007
scalar FogSequentialForward.fog[23].dispatcher internalJobs 16165
scalar FogSequentialForward.fog[23].dispatcher externalJobs 5775398
scalar FogSequentialForward.fog[23].dispatcher remoteJobs 5775392
scalar FogSequentialForward.fog[23].dispatcher probeQueries 0
scalar FogSequentialForward.fog[23].dispatcher probeAnswers 0
scalar FogSequentialForward.fog[23].dispatcher droppedJobsSLA 1164
scalar FogSequentialForward.fog[23].dispatcher jobs_class_1 5791563
scalar FogSequentialForward.fog[23].dispatcher remoteJobs_class_1 5775392
scalar FogSequentialForward.fog[23].dispatcher localJobs_class_1 15007
scalar FogSequentialForward.fog[23].dispatcher droppedJobsSLA_class_1 1164
scalar FogSequentialForward.fog[23].server[0] rho 0.99999934434891
scalar FogSequentialForward.fog[23].server[0] congestionRatio 0
scalar FogSequentialForward.fog[23].server[0] totalJobs 15007
scalar FogSequentialForward.fog[23].server[0] droppedJobsQueue 882
scalar FogSequentialForward.fog[23].server[0] droppedJobsTimout 0
scalar FogSequentialForward.fog[23].server[0] droppedJobsSLA 9283
scalar FogSequentialForward.fog[23].server[0] droppedJobsTotal 10165
scalar FogSequentialForward.fog[24].dispatcher localJobs 14936
scalar FogSequentialForward.fog[24].dispatcher internalJobs 16302
scalar FogSequentialForward.fog[24].dispatcher externalJobs 5773834
scalar FogSequentialForward.fog[24].dispatcher remoteJobs 5774052
scalar FogSequentialForward.fog[24].dispatcher probeQueries 0
scalar FogSequentialForward.fog[24].dispatcher probeAnswers 0
scalar FogSequentialForward.fog[24].dispatcher droppedJobsSLA 1148
scalar FogSequentialForward.fog[24].dispatcher jobs_class_1 5790136
scalar FogSequentialForward.fog[24].dispatcher remoteJobs_class_1 5774052
scalar FogSequentialForward.fog[24].dispatcher localJobs_class_1 14936
scalar FogSequentialForward.fog[24].dispatcher droppedJobsSLA_class_1 1148
scalar FogSequentialForward.fog[24].server[0] rho 0.99999934434891
scalar FogSequentialForward.fog[24].server[0] congestionRatio 0
scalar FogSequentialForward.fog[24].server[0] totalJobs 14936
scalar FogSequentialForward.fog[24].server[0] droppedJobsQueue 883
scalar FogSequentialForward.fog[24].server[0] droppedJobsTimout 0
scalar FogSequentialForward.fog[24].server[0] droppedJobsSLA 9244
scalar FogSequentialForward.fog[24].server[0] droppedJobsTotal 10127
scalar FogSequentialForward.fog[25].dispatcher localJobs 14925
scalar FogSequentialForward.fog[25].dispatcher internalJobs 16276
scalar FogSequentialForward.fog[25].dispatcher externalJobs 5775244
scalar FogSequentialForward.fog[25].dispatcher remoteJobs 5775398
scalar FogSequentialForward.fog[25].dispatcher probeQueries 0
scalar FogSequentialForward.fog[25].dispatcher probeAnswers 0
scalar FogSequentialForward.fog[25].dispatcher droppedJobsSLA 1197
scalar FogSequentialForward.fog[25].dispatcher jobs_class_1 5791520
scalar FogSequentialForward.fog[25].dispatcher remoteJobs_class_1 5775398
scalar FogSequentialForward.fog[25].dispatcher localJobs_class_1 14925
scalar FogSequentialForward.fog[25].dispatcher droppedJobsSLA_class_1 1197
scalar FogSequentialForward.fog[25].server[0] rho 0.99999982118607
scalar FogSequentialForward.fog[25].server[0] congestionRatio 0
scalar FogSequentialForward.fog[25].server[0] totalJobs 14925
scalar FogSequentialForward.fog[25].server[0] droppedJobsQueue 874
scalar FogSequentialForward.fog[25].server[0] droppedJobsTimout 0
scalar FogSequentialForward.fog[25].server[0] droppedJobsSLA 9196
scalar FogSequentialForward.fog[25].server[0] droppedJobsTotal 10070
scalar FogSequentialForward.fog[26].dispatcher localJobs 15012
scalar FogSequentialForward.fog[26].dispatcher internalJobs 16263
scalar FogSequentialForward.fog[26].dispatcher externalJobs 5768997
scalar FogSequentialForward.fog[26].dispatcher remoteJobs 5769027
scalar FogSequentialForward.fog[26].dispatcher probeQueries 0
scalar FogSequentialForward.fog[26].dispatcher probeAnswers 0
scalar FogSequentialForward.fog[26].dispatcher droppedJobsSLA 1221
scalar FogSequentialForward.fog[26].dispatcher jobs_class_1 5785260
scalar FogSequentialForward.fog[26].dispatcher remoteJobs_class_1 5769027
scalar FogSequentialForward.fog[26].dispatcher localJobs_class_1 15012
scalar FogSequentialForward.fog[26].dispatcher droppedJobsSLA_class_1 1221
scalar FogSequentialForward.fog[26].server[0] rho 0.99999958276749
scalar FogSequentialForward.fog[26].server[0] congestionRatio 0
scalar FogSequentialForward.fog[26].server[0] totalJobs 15012
scalar FogSequentialForward.fog[26].server[0] droppedJobsQueue 885
scalar FogSequentialForward.fog[26].server[0] droppedJobsTimout 0
scalar FogSequentialForward.fog[26].server[0] droppedJobsSLA 9326
scalar FogSequentialForward.fog[26].server[0] droppedJobsTotal 10211
scalar FogSequentialForward.fog[27].dispatcher localJobs 15002
scalar FogSequentialForward.fog[27].dispatcher internalJobs 16184
scalar FogSequentialForward.fog[27].dispatcher externalJobs 5774798
scalar FogSequentialForward.fog[27].dispatcher remoteJobs 5774801
scalar FogSequentialForward.fog[27].dispatcher probeQueries 0
scalar FogSequentialForward.fog[27].dispatcher probeAnswers 0
scalar FogSequentialForward.fog[27].dispatcher droppedJobsSLA 1179
scalar FogSequentialForward.fog[27].dispatcher jobs_class_1 5790982
scalar FogSequentialForward.fog[27].dispatcher remoteJobs_class_1 5774801
scalar FogSequentialForward.fog[27].dispatcher localJobs_class_1 15002
scalar FogSequentialForward.fog[27].dispatcher droppedJobsSLA_class_1 1179
scalar FogSequentialForward.fog[27].server[0] rho 0.99999988079071
scalar FogSequentialForward.fog[27].server[0] congestionRatio 0
scalar FogSequentialForward.fog[27].server[0] totalJobs 15002
scalar FogSequentialForward.fog[27].server[0] droppedJobsQueue 886
scalar FogSequentialForward.fog[27].server[0] droppedJobsTimout 0
scalar FogSequentialForward.fog[27].server[0] droppedJobsSLA 9359
scalar FogSequentialForward.fog[27].server[0] droppedJobsTotal 10245
scalar FogSequentialForward.fog[28].dispatcher localJobs 14962
scalar FogSequentialForward.fog[28].dispatcher internalJobs 16210
scalar FogSequentialForward.fog[28].dispatcher externalJobs 5773128
scalar FogSequentialForward.fog[28].dispatcher remoteJobs 5773179
scalar FogSequentialForward.fog[28].dispatcher probeQueries 0
scalar FogSequentialForward.fog[28].dispatcher probeAnswers 0
scalar FogSequentialForward.fog[28].dispatcher droppedJobsSLA 1197
scalar FogSequentialForward.fog[28].dispatcher jobs_class_1 5789338
scalar FogSequentialForward.fog[28].dispatcher remoteJobs_class_1 5773179
scalar FogSequentialForward.fog[28].dispatcher localJobs_class_1 14962
scalar FogSequentialForward.fog[28].dispatcher droppedJobsSLA_class_1 1197
scalar FogSequentialForward.fog[28].server[0] rho 0.99999994039536
scalar FogSequentialForward.fog[28].server[0] congestionRatio 0
scalar FogSequentialForward.fog[28].server[0] totalJobs 14962
scalar FogSequentialForward.fog[28].server[0] droppedJobsQueue 881
scalar FogSequentialForward.fog[28].server[0] droppedJobsTimout 0
scalar FogSequentialForward.fog[28].server[0] droppedJobsSLA 9283
scalar FogSequentialForward.fog[28].server[0] droppedJobsTotal 10164
scalar FogSequentialForward.fog[29].dispatcher localJobs 14908
scalar FogSequentialForward.fog[29].dispatcher internalJobs 16028
scalar FogSequentialForward.fog[29].dispatcher externalJobs 5773628
scalar FogSequentialForward.fog[29].dispatcher remoteJobs 5773602
scalar FogSequentialForward.fog[29].dispatcher probeQueries 0
scalar FogSequentialForward.fog[29].dispatcher probeAnswers 0
scalar FogSequentialForward.fog[29].dispatcher droppedJobsSLA 1146
scalar FogSequentialForward.fog[29].dispatcher jobs_class_1 5789656
scalar FogSequentialForward.fog[29].dispatcher remoteJobs_class_1 5773602
scalar FogSequentialForward.fog[29].dispatcher localJobs_class_1 14908
scalar FogSequentialForward.fog[29].dispatcher droppedJobsSLA_class_1 1146
scalar FogSequentialForward.fog[29].server[0] rho 0.99999976158142
scalar FogSequentialForward.fog[29].server[0] congestionRatio 0
scalar FogSequentialForward.fog[29].server[0] totalJobs 14908
scalar FogSequentialForward.fog[29].server[0] droppedJobsQueue 882
scalar FogSequentialForward.fog[29].server[0] droppedJobsTimout 0
scalar FogSequentialForward.fog[29].server[0] droppedJobsSLA 9240
scalar FogSequentialForward.fog[29].server[0] droppedJobsTotal 10122
scalar FogSequentialForward.fog[30].dispatcher localJobs 14944
scalar FogSequentialForward.fog[30].dispatcher internalJobs 16338
scalar FogSequentialForward.fog[30].dispatcher externalJobs 5775550
scalar FogSequentialForward.fog[30].dispatcher remoteJobs 5775751
scalar FogSequentialForward.fog[30].dispatcher probeQueries 0
scalar FogSequentialForward.fog[30].dispatcher probeAnswers 0
scalar FogSequentialForward.fog[30].dispatcher droppedJobsSLA 1193
scalar FogSequentialForward.fog[30].dispatcher jobs_class_1 5791888
scalar FogSequentialForward.fog[30].dispatcher remoteJobs_class_1 5775751
scalar FogSequentialForward.fog[30].dispatcher localJobs_class_1 14944
scalar FogSequentialForward.fog[30].dispatcher droppedJobsSLA_class_1 1193
scalar FogSequentialForward.fog[30].server[0] rho 1
scalar FogSequentialForward.fog[30].server[0] congestionRatio 0
scalar FogSequentialForward.fog[30].server[0] totalJobs 14944
scalar FogSequentialForward.fog[30].server[0] droppedJobsQueue 881
scalar FogSequentialForward.fog[30].server[0] droppedJobsTimout 0
scalar FogSequentialForward.fog[30].server[0] droppedJobsSLA 9304
scalar FogSequentialForward.fog[30].server[0] droppedJobsTotal 10185
scalar FogSequentialForward.fog[31].dispatcher localJobs 15022
scalar FogSequentialForward.fog[31].dispatcher internalJobs 16169
scalar FogSequentialForward.fog[31].dispatcher externalJobs 5772776
scalar FogSequentialForward.fog[31].dispatcher remoteJobs 5772714
scalar FogSequentialForward.fog[31].dispatcher probeQueries 0
scalar FogSequentialForward.fog[31].dispatcher probeAnswers 0
scalar FogSequentialForward.fog[31].dispatcher droppedJobsSLA 1209
scalar FogSequentialForward.fog[31].dispatcher jobs_class_1 5788945
scalar FogSequentialForward.fog[31].dispatcher remoteJobs_class_1 5772714
scalar FogSequentialForward.fog[31].dispatcher localJobs_class_1 15022
scalar FogSequentialForward.fog[31].dispatcher droppedJobsSLA_class_1 1209
scalar FogSequentialForward.fog[31].server[0] rho 1
scalar FogSequentialForward.fog[31].server[0] congestionRatio 0
scalar FogSequentialForward.fog[31].server[0] totalJobs 15022
scalar FogSequentialForward.fog[31].server[0] droppedJobsQueue 884
scalar FogSequentialForward.fog[31].server[0] droppedJobsTimout 0
scalar FogSequentialForward.fog[31].server[0] droppedJobsSLA 9297
scalar FogSequentialForward.fog[31].server[0] droppedJobsTotal 10181
scalar FogSequentialForward.fog[32].dispatcher localJobs 14928
scalar FogSequentialForward.fog[32].dispatcher internalJobs 16419
scalar FogSequentialForward.fog[32].dispatcher externalJobs 5770734
scalar FogSequentialForward.fog[32].dispatcher remoteJobs 5771009
scalar FogSequentialForward.fog[32].dispatcher probeQueries 0
scalar FogSequentialForward.fog[32].dispatcher probeAnswers 0
scalar FogSequentialForward.fog[32].dispatcher droppedJobsSLA 1216
scalar FogSequentialForward.fog[32].dispatcher jobs_class_1 5787153
scalar FogSequentialForward.fog[32].dispatcher remoteJobs_class_1 5771009
scalar FogSequentialForward.fog[32].dispatcher localJobs_class_1 14928
scalar FogSequentialForward.fog[32].dispatcher droppedJobsSLA_class_1 1216
scalar FogSequentialForward.fog[32].server[0] rho 0.9999994635582
scalar FogSequentialForward.fog[32].server[0] congestionRatio 0
scalar FogSequentialForward.fog[32].server[0] totalJobs 14928
scalar FogSequentialForward.fog[32].server[0] droppedJobsQueue 879
scalar FogSequentialForward.fog[32].server[0] droppedJobsTimout 0
scalar FogSequentialForward.fog[32].server[0] droppedJobsSLA 9276
scalar FogSequentialForward.fog[32].server[0] droppedJobsTotal 10155
scalar FogSequentialForward.fog[33].dispatcher localJobs 15035
scalar FogSequentialForward.fog[33].dispatcher internalJobs 16014
scalar FogSequentialForward.fog[33].dispatcher externalJobs 5772310
scalar FogSequentialForward.fog[33].dispatcher remoteJobs 5772091
scalar FogSequentialForward.fog[33].dispatcher probeQueries 0
scalar FogSequentialForward.fog[33].dispatcher probeAnswers 0
scalar FogSequentialForward.fog[33].dispatcher droppedJobsSLA 1198
scalar FogSequentialForward.fog[33].dispatcher jobs_class_1 5788324
scalar FogSequentialForward.fog[33].dispatcher remoteJobs_class_1 5772091
scalar FogSequentialForward.fog[33].dispatcher localJobs_class_1 15035
scalar FogSequentialForward.fog[33].dispatcher droppedJobsSLA_class_1 1198
scalar FogSequentialForward.fog[33].server[0] rho 0.99999165534973
scalar FogSequentialForward.fog[33].server[0] congestionRatio 0
scalar FogSequentialForward.fog[33].server[0] totalJobs 15035
scalar FogSequentialForward.fog[33].server[0] droppedJobsQueue 886
scalar FogSequentialForward.fog[33].server[0] droppedJobsTimout 0
scalar FogSequentialForward.fog[33].server[0] droppedJobsSLA 9406
scalar FogSequentialForward.fog[33].server[0] droppedJobsTotal 10292
scalar FogSequentialForward.fog[34].dispatcher localJobs 14959
scalar FogSequentialForward.fog[34].dispatcher internalJobs 16234
scalar FogSequentialForward.fog[34].dispatcher externalJobs 5772514
scalar FogSequentialForward.fog[34].dispatcher remoteJobs 5772597
scalar FogSequentialForward.fog[34].dispatcher probeQueries 0
scalar FogSequentialForward.fog[34].dispatcher probeAnswers 0
scalar FogSequentialForward.fog[34].dispatcher droppedJobsSLA 1192
scalar FogSequentialForward.fog[34].dispatcher jobs_class_1 5788748
scalar FogSequentialForward.fog[34].dispatcher remoteJobs_class_1 5772597
scalar FogSequentialForward.fog[34].dispatcher localJobs_class_1 14959
scalar FogSequentialForward.fog[34].dispatcher droppedJobsSLA_class_1 1192
scalar FogSequentialForward.fog[34].server[0] rho 0.99999994039536
scalar FogSequentialForward.fog[34].server[0] congestionRatio 0
scalar FogSequentialForward.fog[34].server[0] totalJobs 14959
scalar FogSequentialForward.fog[34].server[0] droppedJobsQueue 880
scalar FogSequentialForward.fog[34].server[0] droppedJobsTimout 0
scalar FogSequentialForward.fog[34].server[0] droppedJobsSLA 9315
scalar FogSequentialForward.fog[34].server[0] droppedJobsTotal 10195
scalar FogSequentialForward.fog[35].dispatcher localJobs 14948
scalar FogSequentialForward.fog[35].dispatcher internalJobs 16118
scalar FogSequentialForward.fog[35].dispatcher externalJobs 5770392
scalar FogSequentialForward.fog[35].dispatcher remoteJobs 5770379
scalar FogSequentialForward.fog[35].dispatcher probeQueries 0
scalar FogSequentialForward.fog[35].dispatcher probeAnswers 0
scalar FogSequentialForward.fog[35].dispatcher droppedJobsSLA 1183
scalar FogSequentialForward.fog[35].dispatcher jobs_class_1 5786510
scalar FogSequentialForward.fog[35].dispatcher remoteJobs_class_1 5770379
scalar FogSequentialForward.fog[35].dispatcher localJobs_class_1 14948
scalar FogSequentialForward.fog[35].dispatcher droppedJobsSLA_class_1 1183
scalar FogSequentialForward.fog[35].server[0] rho 1
scalar FogSequentialForward.fog[35].server[0] congestionRatio 0
scalar FogSequentialForward.fog[35].server[0] totalJobs 14948
scalar FogSequentialForward.fog[35].server[0] droppedJobsQueue 881
scalar FogSequentialForward.fog[35].server[0] droppedJobsTimout 0
scalar FogSequentialForward.fog[35].server[0] droppedJobsSLA 9332
scalar FogSequentialForward.fog[35].server[0] droppedJobsTotal 10213
scalar FogSequentialForward.fog[36].dispatcher localJobs 14975
scalar FogSequentialForward.fog[36].dispatcher internalJobs 16117
scalar FogSequentialForward.fog[36].dispatcher externalJobs 5772054
scalar FogSequentialForward.fog[36].dispatcher remoteJobs 5771989
scalar FogSequentialForward.fog[36].dispatcher probeQueries 0
scalar FogSequentialForward.fog[36].dispatcher probeAnswers 0
scalar FogSequentialForward.fog[36].dispatcher droppedJobsSLA 1207
scalar FogSequentialForward.fog[36].dispatcher jobs_class_1 5788171
scalar FogSequentialForward.fog[36].dispatcher remoteJobs_class_1 5771989
scalar FogSequentialForward.fog[36].dispatcher localJobs_class_1 14975
scalar FogSequentialForward.fog[36].dispatcher droppedJobsSLA_class_1 1207
scalar FogSequentialForward.fog[36].server[0] rho 1
scalar FogSequentialForward.fog[36].server[0] congestionRatio 0
scalar FogSequentialForward.fog[36].server[0] totalJobs 14975
scalar FogSequentialForward.fog[36].server[0] droppedJobsQueue 882
scalar FogSequentialForward.fog[36].server[0] droppedJobsTimout 0
scalar FogSequentialForward.fog[36].server[0] droppedJobsSLA 9297
scalar FogSequentialForward.fog[36].server[0] droppedJobsTotal 10179
scalar FogSequentialForward.fog[37].dispatcher localJobs 14973
scalar FogSequentialForward.fog[37].dispatcher internalJobs 16283
scalar FogSequentialForward.fog[37].dispatcher externalJobs 5772466
scalar FogSequentialForward.fog[37].dispatcher remoteJobs 5772513
scalar FogSequentialForward.fog[37].dispatcher probeQueries 0
scalar FogSequentialForward.fog[37].dispatcher probeAnswers 0
scalar FogSequentialForward.fog[37].dispatcher droppedJobsSLA 1263
scalar FogSequentialForward.fog[37].dispatcher jobs_class_1 5788749
scalar FogSequentialForward.fog[37].dispatcher remoteJobs_class_1 5772513
scalar FogSequentialForward.fog[37].dispatcher localJobs_class_1 14973
scalar FogSequentialForward.fog[37].dispatcher droppedJobsSLA_class_1 1263
scalar FogSequentialForward.fog[37].server[0] rho 0.99997800588608
scalar FogSequentialForward.fog[37].server[0] congestionRatio 0
scalar FogSequentialForward.fog[37].server[0] totalJobs 14973
scalar FogSequentialForward.fog[37].server[0] droppedJobsQueue 882
scalar FogSequentialForward.fog[37].server[0] droppedJobsTimout 0
scalar FogSequentialForward.fog[37].server[0] droppedJobsSLA 9294
scalar FogSequentialForward.fog[37].server[0] droppedJobsTotal 10176
scalar FogSequentialForward.fog[38].dispatcher localJobs 14964
scalar FogSequentialForward.fog[38].dispatcher internalJobs 16079
scalar FogSequentialForward.fog[38].dispatcher externalJobs 5772720
scalar FogSequentialForward.fog[38].dispatcher remoteJobs 5772619
scalar FogSequentialForward.fog[38].dispatcher probeQueries 0
scalar FogSequentialForward.fog[38].dispatcher probeAnswers 0
scalar FogSequentialForward.fog[38].dispatcher droppedJobsSLA 1216
scalar FogSequentialForward.fog[38].dispatcher jobs_class_1 5788799
scalar FogSequentialForward.fog[38].dispatcher remoteJobs_class_1 5772619
scalar FogSequentialForward.fog[38].dispatcher localJobs_class_1 14964
scalar FogSequentialForward.fog[38].dispatcher droppedJobsSLA_class_1 1216
scalar FogSequentialForward.fog[38].server[0] rho 1
scalar FogSequentialForward.fog[38].server[0] congestionRatio 0
scalar FogSequentialForward.fog[38].server[0] totalJobs 14964
scalar FogSequentialForward.fog[38].server[0] droppedJobsQueue 882
scalar FogSequentialForward.fog[38].server[0] droppedJobsTimout 0
scalar FogSequentialForward.fog[38].server[0] droppedJobsSLA 9317
scalar FogSequentialForward.fog[38].server[0] droppedJobsTotal 10199
scalar FogSequentialForward.fog[39].dispatcher localJobs 15015
scalar FogSequentialForward.fog[39].dispatcher internalJobs 15951
scalar FogSequentialForward.fog[39].dispatcher externalJobs 5775390
scalar FogSequentialForward.fog[39].dispatcher remoteJobs 5775125
scalar FogSequentialForward.fog[39].dispatcher probeQueries 0
scalar FogSequentialForward.fog[39].dispatcher probeAnswers 0
scalar FogSequentialForward.fog[39].dispatcher droppedJobsSLA 1201
scalar FogSequentialForward.fog[39].dispatcher jobs_class_1 5791341
scalar FogSequentialForward.fog[39].dispatcher remoteJobs_class_1 5775125
scalar FogSequentialForward.fog[39].dispatcher localJobs_class_1 15015
scalar FogSequentialForward.fog[39].dispatcher droppedJobsSLA_class_1 1201
scalar FogSequentialForward.fog[39].server[0] rho 0.99999964237213
scalar FogSequentialForward.fog[39].server[0] congestionRatio 0
scalar FogSequentialForward.fog[39].server[0] totalJobs 15015
scalar FogSequentialForward.fog[39].server[0] droppedJobsQueue 887
scalar FogSequentialForward.fog[39].server[0] droppedJobsTimout 0
scalar FogSequentialForward.fog[39].server[0] droppedJobsSLA 9338
scalar FogSequentialForward.fog[39].server[0] droppedJobsTotal 10225
scalar FogSequentialForward.fog[40].dispatcher localJobs 15033
scalar FogSequentialForward.fog[40].dispatcher internalJobs 16007
scalar FogSequentialForward.fog[40].dispatcher externalJobs 5771399
scalar FogSequentialForward.fog[40].dispatcher remoteJobs 5771121
scalar FogSequentialForward.fog[40].dispatcher probeQueries 0
scalar FogSequentialForward.fog[40].dispatcher probeAnswers 0
scalar FogSequentialForward.fog[40].dispatcher droppedJobsSLA 1252
scalar FogSequentialForward.fog[40].dispatcher jobs_class_1 5787406
scalar FogSequentialForward.fog[40].dispatcher remoteJobs_class_1 5771121
scalar FogSequentialForward.fog[40].dispatcher localJobs_class_1 15033
scalar FogSequentialForward.fog[40].dispatcher droppedJobsSLA_class_1 1252
scalar FogSequentialForward.fog[40].server[0] rho 0.99999994039536
scalar FogSequentialForward.fog[40].server[0] congestionRatio 0
scalar FogSequentialForward.fog[40].server[0] totalJobs 15033
scalar FogSequentialForward.fog[40].server[0] droppedJobsQueue 884
scalar FogSequentialForward.fog[40].server[0] droppedJobsTimout 0
scalar FogSequentialForward.fog[40].server[0] droppedJobsSLA 9365
scalar FogSequentialForward.fog[40].server[0] droppedJobsTotal 10249
scalar FogSequentialForward.fog[41].dispatcher localJobs 15044
scalar FogSequentialForward.fog[41].dispatcher internalJobs 16311
scalar FogSequentialForward.fog[41].dispatcher externalJobs 5776719
scalar FogSequentialForward.fog[41].dispatcher remoteJobs 5776785
scalar FogSequentialForward.fog[41].dispatcher probeQueries 0
scalar FogSequentialForward.fog[41].dispatcher probeAnswers 0
scalar FogSequentialForward.fog[41].dispatcher droppedJobsSLA 1201
scalar FogSequentialForward.fog[41].dispatcher jobs_class_1 5793030
scalar FogSequentialForward.fog[41].dispatcher remoteJobs_class_1 5776785
scalar FogSequentialForward.fog[41].dispatcher localJobs_class_1 15044
scalar FogSequentialForward.fog[41].dispatcher droppedJobsSLA_class_1 1201
scalar FogSequentialForward.fog[41].server[0] rho 0.99999952316284
scalar FogSequentialForward.fog[41].server[0] congestionRatio 0
scalar FogSequentialForward.fog[41].server[0] totalJobs 15044
scalar FogSequentialForward.fog[41].server[0] droppedJobsQueue 887
scalar FogSequentialForward.fog[41].server[0] droppedJobsTimout 0
scalar FogSequentialForward.fog[41].server[0] droppedJobsSLA 9408
scalar FogSequentialForward.fog[41].server[0] droppedJobsTotal 10295
scalar FogSequentialForward.fog[42].dispatcher localJobs 15054
scalar FogSequentialForward.fog[42].dispatcher internalJobs 16008
scalar FogSequentialForward.fog[42].dispatcher externalJobs 5772920
scalar FogSequentialForward.fog[42].dispatcher remoteJobs 5772676
scalar FogSequentialForward.fog[42].dispatcher probeQueries 0
scalar FogSequentialForward.fog[42].dispatcher probeAnswers 0
scalar FogSequentialForward.fog[42].dispatcher droppedJobsSLA 1198
scalar FogSequentialForward.fog[42].dispatcher jobs_class_1 5788928
scalar FogSequentialForward.fog[42].dispatcher remoteJobs_class_1 5772676
scalar FogSequentialForward.fog[42].dispatcher localJobs_class_1 15054
scalar FogSequentialForward.fog[42].dispatcher droppedJobsSLA_class_1 1198
scalar FogSequentialForward.fog[42].server[0] rho 0.99999934434891
scalar FogSequentialForward.fog[42].server[0] congestionRatio 0
scalar FogSequentialForward.fog[42].server[0] totalJobs 15054
scalar FogSequentialForward.fog[42].server[0] droppedJobsQueue 888
scalar FogSequentialForward.fog[42].server[0] droppedJobsTimout 0
scalar FogSequentialForward.fog[42].server[0] droppedJobsSLA 9388
scalar FogSequentialForward.fog[42].server[0] droppedJobsTotal 10276
scalar FogSequentialForward.fog[43].dispatcher localJobs 14955
scalar FogSequentialForward.fog[43].dispatcher internalJobs 16124
scalar FogSequentialForward.fog[43].dispatcher externalJobs 5771896
scalar FogSequentialForward.fog[43].dispatcher remoteJobs 5771954
scalar FogSequentialForward.fog[43].dispatcher probeQueries 0
scalar FogSequentialForward.fog[43].dispatcher probeAnswers 0
scalar FogSequentialForward.fog[43].dispatcher droppedJobsSLA 1111
scalar FogSequentialForward.fog[43].dispatcher jobs_class_1 5788020
scalar FogSequentialForward.fog[43].dispatcher remoteJobs_class_1 5771954
scalar FogSequentialForward.fog[43].dispatcher localJobs_class_1 14955
scalar FogSequentialForward.fog[43].dispatcher droppedJobsSLA_class_1 1111
scalar FogSequentialForward.fog[43].server[0] rho 1
scalar FogSequentialForward.fog[43].server[0] congestionRatio 0
scalar FogSequentialForward.fog[43].server[0] totalJobs 14955
scalar FogSequentialForward.fog[43].server[0] droppedJobsQueue 882
scalar FogSequentialForward.fog[43].server[0] droppedJobsTimout 0
scalar FogSequentialForward.fog[43].server[0] droppedJobsSLA 9318
scalar FogSequentialForward.fog[43].server[0] droppedJobsTotal 10200
scalar FogSequentialForward.fog[44].dispatcher localJobs 14964
scalar FogSequentialForward.fog[44].dispatcher internalJobs 16077
scalar FogSequentialForward.fog[44].dispatcher externalJobs 5770442
scalar FogSequentialForward.fog[44].dispatcher remoteJobs 5770330
scalar FogSequentialForward.fog[44].dispatcher probeQueries 0
scalar FogSequentialForward.fog[44].dispatcher probeAnswers 0
scalar FogSequentialForward.fog[44].dispatcher droppedJobsSLA 1225
scalar FogSequentialForward.fog[44].dispatcher jobs_class_1 5786519
scalar FogSequentialForward.fog[44].dispatcher remoteJobs_class_1 5770330
scalar FogSequentialForward.fog[44].dispatcher localJobs_class_1 14964
scalar FogSequentialForward.fog[44].dispatcher droppedJobsSLA_class_1 1225
scalar FogSequentialForward.fog[44].server[0] rho 1
scalar FogSequentialForward.fog[44].server[0] congestionRatio 0
scalar FogSequentialForward.fog[44].server[0] totalJobs 14964
scalar FogSequentialForward.fog[44].server[0] droppedJobsQueue 880
scalar FogSequentialForward.fog[44].server[0] droppedJobsTimout 0
scalar FogSequentialForward.fog[44].server[0] droppedJobsSLA 9332
scalar FogSequentialForward.fog[44].server[0] droppedJobsTotal 10212
scalar FogSequentialForward.fog[45].dispatcher localJobs 14971
scalar FogSequentialForward.fog[45].dispatcher internalJobs 16306
scalar FogSequentialForward.fog[45].dispatcher externalJobs 5771315
scalar FogSequentialForward.fog[45].dispatcher remoteJobs 5771475
scalar FogSequentialForward.fog[45].dispatcher probeQueries 0
scalar FogSequentialForward.fog[45].dispatcher probeAnswers 0
scalar FogSequentialForward.fog[45].dispatcher droppedJobsSLA 1175
scalar FogSequentialForward.fog[45].dispatcher jobs_class_1 5787621
scalar FogSequentialForward.fog[45].dispatcher remoteJobs_class_1 5771475
scalar FogSequentialForward.fog[45].dispatcher localJobs_class_1 14971
scalar FogSequentialForward.fog[45].dispatcher droppedJobsSLA_class_1 1175
scalar FogSequentialForward.fog[45].server[0] rho 1
scalar FogSequentialForward.fog[45].server[0] congestionRatio 0
scalar FogSequentialForward.fog[45].server[0] totalJobs 14971
scalar FogSequentialForward.fog[45].server[0] droppedJobsQueue 882
scalar FogSequentialForward.fog[45].server[0] droppedJobsTimout 0
scalar FogSequentialForward.fog[45].server[0] droppedJobsSLA 9341
scalar FogSequentialForward.fog[45].server[0] droppedJobsTotal 10223
scalar FogSequentialForward.fog[46].dispatcher localJobs 15031
scalar FogSequentialForward.fog[46].dispatcher internalJobs 16198
scalar FogSequentialForward.fog[46].dispatcher externalJobs 5776265
scalar FogSequentialForward.fog[46].dispatcher remoteJobs 5776248
scalar FogSequentialForward.fog[46].dispatcher probeQueries 0
scalar FogSequentialForward.fog[46].dispatcher probeAnswers 0
scalar FogSequentialForward.fog[46].dispatcher droppedJobsSLA 1184
scalar FogSequentialForward.fog[46].dispatcher jobs_class_1 5792463
scalar FogSequentialForward.fog[46].dispatcher remoteJobs_class_1 5776248
scalar FogSequentialForward.fog[46].dispatcher localJobs_class_1 15031
scalar FogSequentialForward.fog[46].dispatcher droppedJobsSLA_class_1 1184
scalar FogSequentialForward.fog[46].server[0] rho 1
scalar FogSequentialForward.fog[46].server[0] congestionRatio 0
scalar FogSequentialForward.fog[46].server[0] totalJobs 15031
scalar FogSequentialForward.fog[46].server[0] droppedJobsQueue 886
scalar FogSequentialForward.fog[46].server[0] droppedJobsTimout 0
scalar FogSequentialForward.fog[46].server[0] droppedJobsSLA 9380
scalar FogSequentialForward.fog[46].server[0] droppedJobsTotal 10266
scalar FogSequentialForward.fog[47].dispatcher localJobs 15105
scalar FogSequentialForward.fog[47].dispatcher internalJobs 15973
scalar FogSequentialForward.fog[47].dispatcher externalJobs 5770614
scalar FogSequentialForward.fog[47].dispatcher remoteJobs 5770259
scalar FogSequentialForward.fog[47].dispatcher probeQueries 0
scalar FogSequentialForward.fog[47].dispatcher probeAnswers 0
scalar FogSequentialForward.fog[47].dispatcher droppedJobsSLA 1223
scalar FogSequentialForward.fog[47].dispatcher jobs_class_1 5786587
scalar FogSequentialForward.fog[47].dispatcher remoteJobs_class_1 5770259
scalar FogSequentialForward.fog[47].dispatcher localJobs_class_1 15105
scalar FogSequentialForward.fog[47].dispatcher droppedJobsSLA_class_1 1223
scalar FogSequentialForward.fog[47].server[0] rho 0.99999970197678
scalar FogSequentialForward.fog[47].server[0] congestionRatio 0
scalar FogSequentialForward.fog[47].server[0] totalJobs 15105
scalar FogSequentialForward.fog[47].server[0] droppedJobsQueue 890
scalar FogSequentialForward.fog[47].server[0] droppedJobsTimout 0
scalar FogSequentialForward.fog[47].server[0] droppedJobsSLA 9386
scalar FogSequentialForward.fog[47].server[0] droppedJobsTotal 10276
scalar FogSequentialForward.fog[48].dispatcher localJobs 15040
scalar FogSequentialForward.fog[48].dispatcher internalJobs 16167
scalar FogSequentialForward.fog[48].dispatcher externalJobs 5775570
scalar FogSequentialForward.fog[48].dispatcher remoteJobs 5775445
scalar FogSequentialForward.fog[48].dispatcher probeQueries 0
scalar FogSequentialForward.fog[48].dispatcher probeAnswers 0
scalar FogSequentialForward.fog[48].dispatcher droppedJobsSLA 1252
scalar FogSequentialForward.fog[48].dispatcher jobs_class_1 5791737
scalar FogSequentialForward.fog[48].dispatcher remoteJobs_class_1 5775445
scalar FogSequentialForward.fog[48].dispatcher localJobs_class_1 15040
scalar FogSequentialForward.fog[48].dispatcher droppedJobsSLA_class_1 1252
scalar FogSequentialForward.fog[48].server[0] rho 1
scalar FogSequentialForward.fog[48].server[0] congestionRatio 0
scalar FogSequentialForward.fog[48].server[0] totalJobs 15040
scalar FogSequentialForward.fog[48].server[0] droppedJobsQueue 888
scalar FogSequentialForward.fog[48].server[0] droppedJobsTimout 0
scalar FogSequentialForward.fog[48].server[0] droppedJobsSLA 9299
scalar FogSequentialForward.fog[48].server[0] droppedJobsTotal 10187
scalar FogSequentialForward.fog[49].dispatcher localJobs 14948
scalar FogSequentialForward.fog[49].dispatcher internalJobs 16031
scalar FogSequentialForward.fog[49].dispatcher externalJobs 5771489
scalar FogSequentialForward.fog[49].dispatcher remoteJobs 5771442
scalar FogSequentialForward.fog[49].dispatcher probeQueries 0
scalar FogSequentialForward.fog[49].dispatcher probeAnswers 0
scalar FogSequentialForward.fog[49].dispatcher droppedJobsSLA 1130
scalar FogSequentialForward.fog[49].dispatcher jobs_class_1 5787520
scalar FogSequentialForward.fog[49].dispatcher remoteJobs_class_1 5771442
scalar FogSequentialForward.fog[49].dispatcher localJobs_class_1 14948
scalar FogSequentialForward.fog[49].dispatcher droppedJobsSLA_class_1 1130
scalar FogSequentialForward.fog[49].server[0] rho 0.99997812509537
scalar FogSequentialForward.fog[49].server[0] congestionRatio 0
scalar FogSequentialForward.fog[49].server[0] totalJobs 14948
scalar FogSequentialForward.fog[49].server[0] droppedJobsQueue 882
scalar FogSequentialForward.fog[49].server[0] droppedJobsTimout 0
scalar FogSequentialForward.fog[49].server[0] droppedJobsSLA 9284
scalar FogSequentialForward.fog[49].server[0] droppedJobsTotal 10166
scalar FogSequentialForward.fog[50].dispatcher localJobs 14924
scalar FogSequentialForward.fog[50].dispatcher internalJobs 16150
scalar FogSequentialForward.fog[50].dispatcher externalJobs 5772276
scalar FogSequentialForward.fog[50].dispatcher remoteJobs 5772293
scalar FogSequentialForward.fog[50].dispatcher probeQueries 0
scalar FogSequentialForward.fog[50].dispatcher probeAnswers 0
scalar FogSequentialForward.fog[50].dispatcher droppedJobsSLA 1209
scalar FogSequentialForward.fog[50].dispatcher jobs_class_1 5788426
scalar FogSequentialForward.fog[50].dispatcher remoteJobs_class_1 5772293
scalar FogSequentialForward.fog[50].dispatcher localJobs_class_1 14924
scalar FogSequentialForward.fog[50].dispatcher droppedJobsSLA_class_1 1209
scalar FogSequentialForward.fog[50].server[0] rho 0.99999976158142
scalar FogSequentialForward.fog[50].server[0] congestionRatio 0
scalar FogSequentialForward.fog[50].server[0] totalJobs 14924
scalar FogSequentialForward.fog[50].server[0] droppedJobsQueue 881
scalar FogSequentialForward.fog[50].server[0] droppedJobsTimout 0
scalar FogSequentialForward.fog[50].server[0] droppedJobsSLA 9280
scalar FogSequentialForward.fog[50].server[0] droppedJobsTotal 10161
scalar FogSequentialForward.fog[51].dispatcher localJobs 15005
scalar FogSequentialForward.fog[51].dispatcher internalJobs 16346
scalar FogSequentialForward.fog[51].dispatcher externalJobs 5776239
scalar FogSequentialForward.fog[51].dispatcher remoteJobs 5776309
scalar FogSequentialForward.fog[51].dispatcher probeQueries 0
scalar FogSequentialForward.fog[51].dispatcher probeAnswers 0
scalar FogSequentialForward.fog[51].dispatcher droppedJobsSLA 1271
scalar FogSequentialForward.fog[51].dispatcher jobs_class_1 5792585
scalar FogSequentialForward.fog[51].dispatcher remoteJobs_class_1 5776309
scalar FogSequentialForward.fog[51].dispatcher localJobs_class_1 15005
scalar FogSequentialForward.fog[51].dispatcher droppedJobsSLA_class_1 1271
scalar FogSequentialForward.fog[51].server[0] rho 0.99987679719925
scalar FogSequentialForward.fog[51].server[0] congestionRatio 0
scalar FogSequentialForward.fog[51].server[0] totalJobs 15005
scalar FogSequentialForward.fog[51].server[0] droppedJobsQueue 882
scalar FogSequentialForward.fog[51].server[0] droppedJobsTimout 0
scalar FogSequentialForward.fog[51].server[0] droppedJobsSLA 9295
scalar FogSequentialForward.fog[51].server[0] droppedJobsTotal 10177
scalar FogSequentialForward.fog[52].dispatcher localJobs 15014
scalar FogSequentialForward.fog[52].dispatcher internalJobs 16179
scalar FogSequentialForward.fog[52].dispatcher externalJobs 5774234
scalar FogSequentialForward.fog[52].dispatcher remoteJobs 5774183
scalar FogSequentialForward.fog[52].dispatcher probeQueries 0
scalar FogSequentialForward.fog[52].dispatcher probeAnswers 0
scalar FogSequentialForward.fog[52].dispatcher droppedJobsSLA 1216
scalar FogSequentialForward.fog[52].dispatcher jobs_class_1 5790413
scalar FogSequentialForward.fog[52].dispatcher remoteJobs_class_1 5774183
scalar FogSequentialForward.fog[52].dispatcher localJobs_class_1 15014
scalar FogSequentialForward.fog[52].dispatcher droppedJobsSLA_class_1 1216
scalar FogSequentialForward.fog[52].server[0] rho 0.99999994039536
scalar FogSequentialForward.fog[52].server[0] congestionRatio 0
scalar FogSequentialForward.fog[52].server[0] totalJobs 15014
scalar FogSequentialForward.fog[52].server[0] droppedJobsQueue 886
scalar FogSequentialForward.fog[52].server[0] droppedJobsTimout 0
scalar FogSequentialForward.fog[52].server[0] droppedJobsSLA 9344
scalar FogSequentialForward.fog[52].server[0] droppedJobsTotal 10230
scalar FogSequentialForward.fog[53].dispatcher localJobs 15022
scalar FogSequentialForward.fog[53].dispatcher internalJobs 16350
scalar FogSequentialForward.fog[53].dispatcher externalJobs 5775120
scalar FogSequentialForward.fog[53].dispatcher remoteJobs 5775249
scalar FogSequentialForward.fog[53].dispatcher probeQueries 0
scalar FogSequentialForward.fog[53].dispatcher probeAnswers 0
scalar FogSequentialForward.fog[53].dispatcher droppedJobsSLA 1199
scalar FogSequentialForward.fog[53].dispatcher jobs_class_1 5791470
scalar FogSequentialForward.fog[53].dispatcher remoteJobs_class_1 5775249
scalar FogSequentialForward.fog[53].dispatcher localJobs_class_1 15022
scalar FogSequentialForward.fog[53].dispatcher droppedJobsSLA_class_1 1199
scalar FogSequentialForward.fog[53].server[0] rho 0.99999982118607
scalar FogSequentialForward.fog[53].server[0] congestionRatio 0
scalar FogSequentialForward.fog[53].server[0] totalJobs 15022
scalar FogSequentialForward.fog[53].server[0] droppedJobsQueue 884
scalar FogSequentialForward.fog[53].server[0] droppedJobsTimout 0
scalar FogSequentialForward.fog[53].server[0] droppedJobsSLA 9326
scalar FogSequentialForward.fog[53].server[0] droppedJobsTotal 10210
scalar FogSequentialForward.fog[54].dispatcher localJobs 15000
scalar FogSequentialForward.fog[54].dispatcher internalJobs 16167
scalar FogSequentialForward.fog[54].dispatcher externalJobs 5771387
scalar FogSequentialForward.fog[54].dispatcher remoteJobs 5771315
scalar FogSequentialForward.fog[54].dispatcher probeQueries 0
scalar FogSequentialForward.fog[54].dispatcher probeAnswers 0
scalar FogSequentialForward.fog[54].dispatcher droppedJobsSLA 1239
scalar FogSequentialForward.fog[54].dispatcher jobs_class_1 5787554
scalar FogSequentialForward.fog[54].dispatcher remoteJobs_class_1 5771315
scalar FogSequentialForward.fog[54].dispatcher localJobs_class_1 15000
scalar FogSequentialForward.fog[54].dispatcher droppedJobsSLA_class_1 1239
scalar FogSequentialForward.fog[54].server[0] rho 0.99999934434891
scalar FogSequentialForward.fog[54].server[0] congestionRatio 0
scalar FogSequentialForward.fog[54].server[0] totalJobs 15000
scalar FogSequentialForward.fog[54].server[0] droppedJobsQueue 881
scalar FogSequentialForward.fog[54].server[0] droppedJobsTimout 0
scalar FogSequentialForward.fog[54].server[0] droppedJobsSLA 9351
scalar FogSequentialForward.fog[54].server[0] droppedJobsTotal 10232
scalar FogSequentialForward.fog[55].dispatcher localJobs 14989
scalar FogSequentialForward.fog[55].dispatcher internalJobs 16457
scalar FogSequentialForward.fog[55].dispatcher externalJobs 5772908
scalar FogSequentialForward.fog[55].dispatcher remoteJobs 5773204
scalar FogSequentialForward.fog[55].dispatcher probeQueries 0
scalar FogSequentialForward.fog[55].dispatcher probeAnswers 0
scalar FogSequentialForward.fog[55].dispatcher droppedJobsSLA 1172
scalar FogSequentialForward.fog[55].dispatcher jobs_class_1 5789365
scalar FogSequentialForward.fog[55].dispatcher remoteJobs_class_1 5773204
scalar FogSequentialForward.fog[55].dispatcher localJobs_class_1 14989
scalar FogSequentialForward.fog[55].dispatcher droppedJobsSLA_class_1 1172
scalar FogSequentialForward.fog[55].server[0] rho 0.99998486042023
scalar FogSequentialForward.fog[55].server[0] congestionRatio 0
scalar FogSequentialForward.fog[55].server[0] totalJobs 14989
scalar FogSequentialForward.fog[55].server[0] droppedJobsQueue 886
scalar FogSequentialForward.fog[55].server[0] droppedJobsTimout 0
scalar FogSequentialForward.fog[55].server[0] droppedJobsSLA 9360
scalar FogSequentialForward.fog[55].server[0] droppedJobsTotal 10246
scalar FogSequentialForward.fog[56].dispatcher localJobs 14987
scalar FogSequentialForward.fog[56].dispatcher internalJobs 16221
scalar FogSequentialForward.fog[56].dispatcher externalJobs 5774084
scalar FogSequentialForward.fog[56].dispatcher remoteJobs 5774118
scalar FogSequentialForward.fog[56].dispatcher probeQueries 0
scalar FogSequentialForward.fog[56].dispatcher probeAnswers 0
scalar FogSequentialForward.fog[56].dispatcher droppedJobsSLA 1200
scalar FogSequentialForward.fog[56].dispatcher jobs_class_1 5790305
scalar FogSequentialForward.fog[56].dispatcher remoteJobs_class_1 5774118
scalar FogSequentialForward.fog[56].dispatcher localJobs_class_1 14987
scalar FogSequentialForward.fog[56].dispatcher droppedJobsSLA_class_1 1200
scalar FogSequentialForward.fog[56].server[0] rho 1
scalar FogSequentialForward.fog[56].server[0] congestionRatio 0
scalar FogSequentialForward.fog[56].server[0] totalJobs 14987
scalar FogSequentialForward.fog[56].server[0] droppedJobsQueue 882
scalar FogSequentialForward.fog[56].server[0] droppedJobsTimout 0
scalar FogSequentialForward.fog[56].server[0] droppedJobsSLA 9343
scalar FogSequentialForward.fog[56].server[0] droppedJobsTotal 10225
scalar FogSequentialForward.fog[57].dispatcher localJobs 14995
scalar FogSequentialForward.fog[57].dispatcher internalJobs 16184
scalar FogSequentialForward.fog[57].dispatcher externalJobs 5770771
scalar FogSequentialForward.fog[57].dispatcher remoteJobs 5770768
scalar FogSequentialForward.fog[57].dispatcher probeQueries 0
scalar FogSequentialForward.fog[57].dispatcher probeAnswers 0
scalar FogSequentialForward.fog[57].dispatcher droppedJobsSLA 1192
scalar FogSequentialForward.fog[57].dispatcher jobs_class_1 5786955
scalar FogSequentialForward.fog[57].dispatcher remoteJobs_class_1 5770768
scalar FogSequentialForward.fog[57].dispatcher localJobs_class_1 14995
scalar FogSequentialForward.fog[57].dispatcher droppedJobsSLA_class_1 1192
scalar FogSequentialForward.fog[57].server[0] rho 1
scalar FogSequentialForward.fog[57].server[0] congestionRatio 0
scalar FogSequentialForward.fog[57].server[0] totalJobs 14995
scalar FogSequentialForward.fog[57].server[0] droppedJobsQueue 887
scalar FogSequentialForward.fog[57].server[0] droppedJobsTimout 0
scalar FogSequentialForward.fog[57].server[0] droppedJobsSLA 9344
scalar FogSequentialForward.fog[57].server[0] droppedJobsTotal 10231
scalar FogSequentialForward.fog[58].dispatcher localJobs 14931
scalar FogSequentialForward.fog[58].dispatcher internalJobs 16044
scalar FogSequentialForward.fog[58].dispatcher externalJobs 5774525
scalar FogSequentialForward.fog[58].dispatcher remoteJobs 5774424
scalar FogSequentialForward.fog[58].dispatcher probeQueries 0
scalar FogSequentialForward.fog[58].dispatcher probeAnswers 0
scalar FogSequentialForward.fog[58].dispatcher droppedJobsSLA 1214
scalar FogSequentialForward.fog[58].dispatcher jobs_class_1 5790569
scalar FogSequentialForward.fog[58].dispatcher remoteJobs_class_1 5774424
scalar FogSequentialForward.fog[58].dispatcher localJobs_class_1 14931
scalar FogSequentialForward.fog[58].dispatcher droppedJobsSLA_class_1 1214
scalar FogSequentialForward.fog[58].server[0] rho 1
scalar FogSequentialForward.fog[58].server[0] congestionRatio 0
scalar FogSequentialForward.fog[58].server[0] totalJobs 14931
scalar FogSequentialForward.fog[58].server[0] droppedJobsQueue 881
scalar FogSequentialForward.fog[58].server[0] droppedJobsTimout 0
scalar FogSequentialForward.fog[58].server[0] droppedJobsSLA 9257
scalar FogSequentialForward.fog[58].server[0] droppedJobsTotal 10138
scalar FogSequentialForward.fog[59].dispatcher localJobs 15027
scalar FogSequentialForward.fog[59].dispatcher internalJobs 16253
scalar FogSequentialForward.fog[59].dispatcher externalJobs 5773310
scalar FogSequentialForward.fog[59].dispatcher remoteJobs 5773282
scalar FogSequentialForward.fog[59].dispatcher probeQueries 0
scalar FogSequentialForward.fog[59].dispatcher probeAnswers 0
scalar FogSequentialForward.fog[59].dispatcher droppedJobsSLA 1254
scalar FogSequentialForward.fog[59].dispatcher jobs_class_1 5789563
scalar FogSequentialForward.fog[59].dispatcher remoteJobs_class_1 5773282
scalar FogSequentialForward.fog[59].dispatcher localJobs_class_1 15027
scalar FogSequentialForward.fog[59].dispatcher droppedJobsSLA_class_1 1254
scalar FogSequentialForward.fog[59].server[0] rho 0.99998831748962
scalar FogSequentialForward.fog[59].server[0] congestionRatio 0
scalar FogSequentialForward.fog[59].server[0] totalJobs 15027
scalar FogSequentialForward.fog[59].server[0] droppedJobsQueue 888
scalar FogSequentialForward.fog[59].server[0] droppedJobsTimout 0
scalar FogSequentialForward.fog[59].server[0] droppedJobsSLA 9366
scalar FogSequentialForward.fog[59].server[0] droppedJobsTotal 10254
scalar FogSequentialForward.fog[60].dispatcher localJobs 15013
scalar FogSequentialForward.fog[60].dispatcher internalJobs 16117
scalar FogSequentialForward.fog[60].dispatcher externalJobs 5772850
scalar FogSequentialForward.fog[60].dispatcher remoteJobs 5772773
scalar FogSequentialForward.fog[60].dispatcher probeQueries 0
scalar FogSequentialForward.fog[60].dispatcher probeAnswers 0
scalar FogSequentialForward.fog[60].dispatcher droppedJobsSLA 1181
scalar FogSequentialForward.fog[60].dispatcher jobs_class_1 5788967
scalar FogSequentialForward.fog[60].dispatcher remoteJobs_class_1 5772773
scalar FogSequentialForward.fog[60].dispatcher localJobs_class_1 15013
scalar FogSequentialForward.fog[60].dispatcher droppedJobsSLA_class_1 1181
scalar FogSequentialForward.fog[60].server[0] rho 0.99999994039536
scalar FogSequentialForward.fog[60].server[0] congestionRatio 0
scalar FogSequentialForward.fog[60].server[0] totalJobs 15013
scalar FogSequentialForward.fog[60].server[0] droppedJobsQueue 885
scalar FogSequentialForward.fog[60].server[0] droppedJobsTimout 0
scalar FogSequentialForward.fog[60].server[0] droppedJobsSLA 9333
scalar FogSequentialForward.fog[60].server[0] droppedJobsTotal 10218
scalar FogSequentialForward.fog[61].dispatcher localJobs 14975
scalar FogSequentialForward.fog[61].dispatcher internalJobs 16056
scalar FogSequentialForward.fog[61].dispatcher externalJobs 5771794
scalar FogSequentialForward.fog[61].dispatcher remoteJobs 5771733
scalar FogSequentialForward.fog[61].dispatcher probeQueries 0
scalar FogSequentialForward.fog[61].dispatcher probeAnswers 0
scalar FogSequentialForward.fog[61].dispatcher droppedJobsSLA 1142
scalar FogSequentialForward.fog[61].dispatcher jobs_class_1 5787850
scalar FogSequentialForward.fog[61].dispatcher remoteJobs_class_1 5771733
scalar FogSequentialForward.fog[61].dispatcher localJobs_class_1 14975
scalar FogSequentialForward.fog[61].dispatcher droppedJobsSLA_class_1 1142
scalar FogSequentialForward.fog[61].server[0] rho 0.99999046325684
scalar FogSequentialForward.fog[61].server[0] congestionRatio 0
scalar FogSequentialForward.fog[61].server[0] totalJobs 14975
scalar FogSequentialForward.fog[61].server[0] droppedJobsQueue 882
scalar FogSequentialForward.fog[61].server[0] droppedJobsTimout 0
scalar FogSequentialForward.fog[61].server[0] droppedJobsSLA 9290
scalar FogSequentialForward.fog[61].server[0] droppedJobsTotal 10172
scalar FogSequentialForward.fog[62].dispatcher localJobs 14915
scalar FogSequentialForward.fog[62].dispatcher internalJobs 16111
scalar FogSequentialForward.fog[62].dispatcher externalJobs 5770533
scalar FogSequentialForward.fog[62].dispatcher remoteJobs 5770515
scalar FogSequentialForward.fog[62].dispatcher probeQueries 0
scalar FogSequentialForward.fog[62].dispatcher probeAnswers 0
scalar FogSequentialForward.fog[62].dispatcher droppedJobsSLA 1214
scalar FogSequentialForward.fog[62].dispatcher jobs_class_1 5786644
scalar FogSequentialForward.fog[62].dispatcher remoteJobs_class_1 5770515
scalar FogSequentialForward.fog[62].dispatcher localJobs_class_1 14915
scalar FogSequentialForward.fog[62].dispatcher droppedJobsSLA_class_1 1214
scalar FogSequentialForward.fog[62].server[0] rho 1
scalar FogSequentialForward.fog[62].server[0] congestionRatio 0
scalar FogSequentialForward.fog[62].server[0] totalJobs 14915
scalar FogSequentialForward.fog[62].server[0] droppedJobsQueue 880
scalar FogSequentialForward.fog[62].server[0] droppedJobsTimout 0
scalar FogSequentialForward.fog[62].server[0] droppedJobsSLA 9323
scalar FogSequentialForward.fog[62].server[0] droppedJobsTotal 10203
scalar FogSequentialForward.fog[63].dispatcher localJobs 15062
scalar FogSequentialForward.fog[63].dispatcher internalJobs 16354
scalar FogSequentialForward.fog[63].dispatcher externalJobs 5773158
scalar FogSequentialForward.fog[63].dispatcher remoteJobs 5773287
scalar FogSequentialForward.fog[63].dispatcher probeQueries 0
scalar FogSequentialForward.fog[63].dispatcher probeAnswers 0
scalar FogSequentialForward.fog[63].dispatcher droppedJobsSLA 1163
scalar FogSequentialForward.fog[63].dispatcher jobs_class_1 5789512
scalar FogSequentialForward.fog[63].dispatcher remoteJobs_class_1 5773287
scalar FogSequentialForward.fog[63].dispatcher localJobs_class_1 15062
scalar FogSequentialForward.fog[63].dispatcher droppedJobsSLA_class_1 1163
scalar FogSequentialForward.fog[63].server[0] rho 0.99994295835495
scalar FogSequentialForward.fog[63].server[0] congestionRatio 0
scalar FogSequentialForward.fog[63].server[0] totalJobs 15062
scalar FogSequentialForward.fog[63].server[0] droppedJobsQueue 888
scalar FogSequentialForward.fog[63].server[0] droppedJobsTimout 0
scalar FogSequentialForward.fog[63].server[0] droppedJobsSLA 9412
scalar FogSequentialForward.fog[63].server[0] droppedJobsTotal 10300
scalar FogSequentialForward.fog[64].dispatcher localJobs 15009
scalar FogSequentialForward.fog[64].dispatcher internalJobs 16102
scalar FogSequentialForward.fog[64].dispatcher externalJobs 5771844
scalar FogSequentialForward.fog[64].dispatcher remoteJobs 5771730
scalar FogSequentialForward.fog[64].dispatcher probeQueries 0
scalar FogSequentialForward.fog[64].dispatcher probeAnswers 0
scalar FogSequentialForward.fog[64].dispatcher droppedJobsSLA 1207
scalar FogSequentialForward.fog[64].dispatcher jobs_class_1 5787946
scalar FogSequentialForward.fog[64].dispatcher remoteJobs_class_1 5771730
scalar FogSequentialForward.fog[64].dispatcher localJobs_class_1 15009
scalar FogSequentialForward.fog[64].dispatcher droppedJobsSLA_class_1 1207
scalar FogSequentialForward.fog[64].server[0] rho 0.99999988079071
scalar FogSequentialForward.fog[64].server[0] congestionRatio 0
scalar FogSequentialForward.fog[64].server[0] totalJobs 15009
scalar FogSequentialForward.fog[64].server[0] droppedJobsQueue 887
scalar FogSequentialForward.fog[64].server[0] droppedJobsTimout 0
scalar FogSequentialForward.fog[64].server[0] droppedJobsSLA 9369
scalar FogSequentialForward.fog[64].server[0] droppedJobsTotal 10256
scalar FogSequentialForward.fog[65].dispatcher localJobs 14977
scalar FogSequentialForward.fog[65].dispatcher internalJobs 16226
scalar FogSequentialForward.fog[65].dispatcher externalJobs 5775548
scalar FogSequentialForward.fog[65].dispatcher remoteJobs 5775577
scalar FogSequentialForward.fog[65].dispatcher probeQueries 0
scalar FogSequentialForward.fog[65].dispatcher probeAnswers 0
scalar FogSequentialForward.fog[65].dispatcher droppedJobsSLA 1220
scalar FogSequentialForward.fog[65].dispatcher jobs_class_1 5791774
scalar FogSequentialForward.fog[65].dispatcher remoteJobs_class_1 5775577
scalar FogSequentialForward.fog[65].dispatcher localJobs_class_1 14977
scalar FogSequentialForward.fog[65].dispatcher droppedJobsSLA_class_1 1220
scalar FogSequentialForward.fog[65].server[0] rho 0.99999904632568
scalar FogSequentialForward.fog[65].server[0] congestionRatio 0
scalar FogSequentialForward.fog[65].server[0] totalJobs 14977
scalar FogSequentialForward.fog[65].server[0] droppedJobsQueue 881
[...]
scalar FogSequentialForward.fog[84].dispatcher probeAnswers 0
scalar FogSequentialForward.fog[84].dispatcher droppedJobsSLA 1212
scalar FogSequentialForward.fog[84].dispatcher jobs_class_1 5787972
scalar FogSequentialForward.fog[84].dispatcher remoteJobs_class_1 5771793
scalar FogSequentialForward.fog[84].dispatcher localJobs_class_1 14967
scalar FogSequentialForward.fog[84].dispatcher droppedJobsSLA_class_1 1212
scalar FogSequentialForward.fog[84].server[0] rho 0.99999982118607
scalar FogSequentialForward.fog[84].server[0] congestionRatio 0
scalar FogSequentialForward.fog[84].server[0] totalJobs 14967
scalar FogSequentialForward.fog[84].server[0] droppedJobsQueue 879
scalar FogSequentialForward.fog[84].server[0] droppedJobsTimout 0
scalar FogSequentialForward.fog[84].server[0] droppedJobsSLA 9306
scalar FogSequentialForward.fog[84].server[0] droppedJobsTotal 10185
scalar FogSequentialForward.fog[85].dispatcher localJobs 15098
scalar FogSequentialForward.fog[85].dispatcher internalJobs 16024
scalar FogSequentialForward.fog[85].dispatcher externalJobs 5778387
scalar FogSequentialForward.fog[85].dispatcher remoteJobs 5778100
scalar FogSequentialForward.fog[85].dispatcher probeQueries 0
scalar FogSequentialForward.fog[85].dispatcher probeAnswers 0
scalar FogSequentialForward.fog[85].dispatcher droppedJobsSLA 1213
scalar FogSequentialForward.fog[85].dispatcher jobs_class_1 5794411
scalar FogSequentialForward.fog[85].dispatcher remoteJobs_class_1 5778100
scalar FogSequentialForward.fog[85].dispatcher localJobs_class_1 15098
scalar FogSequentialForward.fog[85].dispatcher droppedJobsSLA_class_1 1213
scalar FogSequentialForward.fog[85].server[0] rho 0.99995589256287
scalar FogSequentialForward.fog[85].server[0] congestionRatio 0
scalar FogSequentialForward.fog[85].server[0] totalJobs 15098
scalar FogSequentialForward.fog[85].server[0] droppedJobsQueue 891
scalar FogSequentialForward.fog[85].server[0] droppedJobsTimout 0
scalar FogSequentialForward.fog[85].server[0] droppedJobsSLA 9383
scalar FogSequentialForward.fog[85].server[0] droppedJobsTotal 10274
scalar FogSequentialForward.fog[86].dispatcher localJobs 14919
scalar FogSequentialForward.fog[86].dispatcher internalJobs 16377
scalar FogSequentialForward.fog[86].dispatcher externalJobs 5770111
scalar FogSequentialForward.fog[86].dispatcher remoteJobs 5770296
scalar FogSequentialForward.fog[86].dispatcher probeQueries 0
scalar FogSequentialForward.fog[86].dispatcher probeAnswers 0
scalar FogSequentialForward.fog[86].dispatcher droppedJobsSLA 1273
scalar FogSequentialForward.fog[86].dispatcher jobs_class_1 5786488
scalar FogSequentialForward.fog[86].dispatcher remoteJobs_class_1 5770296
scalar FogSequentialForward.fog[86].dispatcher localJobs_class_1 14919
scalar FogSequentialForward.fog[86].dispatcher droppedJobsSLA_class_1 1273
scalar FogSequentialForward.fog[86].server[0] rho 1
scalar FogSequentialForward.fog[86].server[0] congestionRatio 0
scalar FogSequentialForward.fog[86].server[0] totalJobs 14919
scalar FogSequentialForward.fog[86].server[0] droppedJobsQueue 881
scalar FogSequentialForward.fog[86].server[0] droppedJobsTimout 0
scalar FogSequentialForward.fog[86].server[0] droppedJobsSLA 9283
scalar FogSequentialForward.fog[86].server[0] droppedJobsTotal 10164
scalar FogSequentialForward.fog[87].dispatcher localJobs 14991
scalar FogSequentialForward.fog[87].dispatcher internalJobs 16252
scalar FogSequentialForward.fog[87].dispatcher externalJobs 5770909
scalar FogSequentialForward.fog[87].dispatcher remoteJobs 5770981
scalar FogSequentialForward.fog[87].dispatcher probeQueries 0
scalar FogSequentialForward.fog[87].dispatcher probeAnswers 0
scalar FogSequentialForward.fog[87].dispatcher droppedJobsSLA 1189
scalar FogSequentialForward.fog[87].dispatcher jobs_class_1 5787161
scalar FogSequentialForward.fog[87].dispatcher remoteJobs_class_1 5770981
scalar FogSequentialForward.fog[87].dispatcher localJobs_class_1 14991
scalar FogSequentialForward.fog[87].dispatcher droppedJobsSLA_class_1 1189
scalar FogSequentialForward.fog[87].server[0] rho 0.99999952316284
scalar FogSequentialForward.fog[87].server[0] congestionRatio 0
scalar FogSequentialForward.fog[87].server[0] totalJobs 14991
scalar FogSequentialForward.fog[87].server[0] droppedJobsQueue 880
scalar FogSequentialForward.fog[87].server[0] droppedJobsTimout 0
scalar FogSequentialForward.fog[87].server[0] droppedJobsSLA 9321
scalar FogSequentialForward.fog[87].server[0] droppedJobsTotal 10201
scalar FogSequentialForward.fog[88].dispatcher localJobs 14979
scalar FogSequentialForward.fog[88].dispatcher internalJobs 16281
scalar FogSequentialForward.fog[88].dispatcher externalJobs 5773987
scalar FogSequentialForward.fog[88].dispatcher remoteJobs 5774044
scalar FogSequentialForward.fog[88].dispatcher probeQueries 0
scalar FogSequentialForward.fog[88].dispatcher probeAnswers 0
scalar FogSequentialForward.fog[88].dispatcher droppedJobsSLA 1245
scalar FogSequentialForward.fog[88].dispatcher jobs_class_1 5790268
scalar FogSequentialForward.fog[88].dispatcher remoteJobs_class_1 5774044
scalar FogSequentialForward.fog[88].dispatcher localJobs_class_1 14979
scalar FogSequentialForward.fog[88].dispatcher droppedJobsSLA_class_1 1245
scalar FogSequentialForward.fog[88].server[0] rho 0.99999982118607
scalar FogSequentialForward.fog[88].server[0] congestionRatio 0
scalar FogSequentialForward.fog[88].server[0] totalJobs 14979
scalar FogSequentialForward.fog[88].server[0] droppedJobsQueue 882
scalar FogSequentialForward.fog[88].server[0] droppedJobsTimout 0
scalar FogSequentialForward.fog[88].server[0] droppedJobsSLA 9342
scalar FogSequentialForward.fog[88].server[0] droppedJobsTotal 10224
scalar FogSequentialForward.fog[89].dispatcher localJobs 14920
scalar FogSequentialForward.fog[89].dispatcher internalJobs 16203
scalar FogSequentialForward.fog[89].dispatcher externalJobs 5774715
scalar FogSequentialForward.fog[89].dispatcher remoteJobs 5774758
scalar FogSequentialForward.fog[89].dispatcher probeQueries 0
scalar FogSequentialForward.fog[89].dispatcher probeAnswers 0
scalar FogSequentialForward.fog[89].dispatcher droppedJobsSLA 1240
scalar FogSequentialForward.fog[89].dispatcher jobs_class_1 5790918
scalar FogSequentialForward.fog[89].dispatcher remoteJobs_class_1 5774758
scalar FogSequentialForward.fog[89].dispatcher localJobs_class_1 14920
scalar FogSequentialForward.fog[89].dispatcher droppedJobsSLA_class_1 1240
scalar FogSequentialForward.fog[89].server[0] rho 0.99999982118607
scalar FogSequentialForward.fog[89].server[0] congestionRatio 0
scalar FogSequentialForward.fog[89].server[0] totalJobs 14920
scalar FogSequentialForward.fog[89].server[0] droppedJobsQueue 882
scalar FogSequentialForward.fog[89].server[0] droppedJobsTimout 0
scalar FogSequentialForward.fog[89].server[0] droppedJobsSLA 9264
scalar FogSequentialForward.fog[89].server[0] droppedJobsTotal 10146
scalar FogSequentialForward.fog[90].dispatcher localJobs 14893
scalar FogSequentialForward.fog[90].dispatcher internalJobs 16111
scalar FogSequentialForward.fog[90].dispatcher externalJobs 5770613
scalar FogSequentialForward.fog[90].dispatcher remoteJobs 5770545
scalar FogSequentialForward.fog[90].dispatcher probeQueries 0
scalar FogSequentialForward.fog[90].dispatcher probeAnswers 0
scalar FogSequentialForward.fog[90].dispatcher droppedJobsSLA 1286
scalar FogSequentialForward.fog[90].dispatcher jobs_class_1 5786724
scalar FogSequentialForward.fog[90].dispatcher remoteJobs_class_1 5770545
scalar FogSequentialForward.fog[90].dispatcher localJobs_class_1 14893
scalar FogSequentialForward.fog[90].dispatcher droppedJobsSLA_class_1 1286
scalar FogSequentialForward.fog[90].server[0] rho 0.99999755620956
scalar FogSequentialForward.fog[90].server[0] congestionRatio 0
scalar FogSequentialForward.fog[90].server[0] totalJobs 14893
scalar FogSequentialForward.fog[90].server[0] droppedJobsQueue 874
scalar FogSequentialForward.fog[90].server[0] droppedJobsTimout 0
scalar FogSequentialForward.fog[90].server[0] droppedJobsSLA 9210
scalar FogSequentialForward.fog[90].server[0] droppedJobsTotal 10084
scalar FogSequentialForward.fog[91].dispatcher localJobs 14955
scalar FogSequentialForward.fog[91].dispatcher internalJobs 16150
scalar FogSequentialForward.fog[91].dispatcher externalJobs 5772395
scalar FogSequentialForward.fog[91].dispatcher remoteJobs 5772390
scalar FogSequentialForward.fog[91].dispatcher probeQueries 0
scalar FogSequentialForward.fog[91].dispatcher probeAnswers 0
scalar FogSequentialForward.fog[91].dispatcher droppedJobsSLA 1200
scalar FogSequentialForward.fog[91].dispatcher jobs_class_1 5788545
scalar FogSequentialForward.fog[91].dispatcher remoteJobs_class_1 5772390
scalar FogSequentialForward.fog[91].dispatcher localJobs_class_1 14955
scalar FogSequentialForward.fog[91].dispatcher droppedJobsSLA_class_1 1200
scalar FogSequentialForward.fog[91].server[0] rho 0.99999266862869
scalar FogSequentialForward.fog[91].server[0] congestionRatio 0
scalar FogSequentialForward.fog[91].server[0] totalJobs 14955
scalar FogSequentialForward.fog[91].server[0] droppedJobsQueue 881
scalar FogSequentialForward.fog[91].server[0] droppedJobsTimout 0
scalar FogSequentialForward.fog[91].server[0] droppedJobsSLA 9343
scalar FogSequentialForward.fog[91].server[0] droppedJobsTotal 10224
scalar FogSequentialForward.fog[92].dispatcher localJobs 14957
scalar FogSequentialForward.fog[92].dispatcher internalJobs 16088
scalar FogSequentialForward.fog[92].dispatcher externalJobs 5772443
scalar FogSequentialForward.fog[92].dispatcher remoteJobs 5772398
scalar FogSequentialForward.fog[92].dispatcher probeQueries 0
scalar FogSequentialForward.fog[92].dispatcher probeAnswers 0
scalar FogSequentialForward.fog[92].dispatcher droppedJobsSLA 1176
scalar FogSequentialForward.fog[92].dispatcher jobs_class_1 5788531
scalar FogSequentialForward.fog[92].dispatcher remoteJobs_class_1 5772398
scalar FogSequentialForward.fog[92].dispatcher localJobs_class_1 14957
scalar FogSequentialForward.fog[92].dispatcher droppedJobsSLA_class_1 1176
scalar FogSequentialForward.fog[92].server[0] rho 0.99999952316284
scalar FogSequentialForward.fog[92].server[0] congestionRatio 0
scalar FogSequentialForward.fog[92].server[0] totalJobs 14957
scalar FogSequentialForward.fog[92].server[0] droppedJobsQueue 879
scalar FogSequentialForward.fog[92].server[0] droppedJobsTimout 0
scalar FogSequentialForward.fog[92].server[0] droppedJobsSLA 9336
scalar FogSequentialForward.fog[92].server[0] droppedJobsTotal 10215
scalar FogSequentialForward.fog[93].dispatcher localJobs 15053
scalar FogSequentialForward.fog[93].dispatcher internalJobs 16080
scalar FogSequentialForward.fog[93].dispatcher externalJobs 5770415
scalar FogSequentialForward.fog[93].dispatcher remoteJobs 5770242
scalar FogSequentialForward.fog[93].dispatcher probeQueries 0
scalar FogSequentialForward.fog[93].dispatcher probeAnswers 0
scalar FogSequentialForward.fog[93].dispatcher droppedJobsSLA 1200
scalar FogSequentialForward.fog[93].dispatcher jobs_class_1 5786495
scalar FogSequentialForward.fog[93].dispatcher remoteJobs_class_1 5770242
scalar FogSequentialForward.fog[93].dispatcher localJobs_class_1 15053
scalar FogSequentialForward.fog[93].dispatcher droppedJobsSLA_class_1 1200
scalar FogSequentialForward.fog[93].server[0] rho 0.99999850988388
scalar FogSequentialForward.fog[93].server[0] congestionRatio 0
scalar FogSequentialForward.fog[93].server[0] totalJobs 15053
scalar FogSequentialForward.fog[93].server[0] droppedJobsQueue 887
scalar FogSequentialForward.fog[93].server[0] droppedJobsTimout 0
scalar FogSequentialForward.fog[93].server[0] droppedJobsSLA 9381
scalar FogSequentialForward.fog[93].server[0] droppedJobsTotal 10268
scalar FogSequentialForward.fog[94].dispatcher localJobs 14953
scalar FogSequentialForward.fog[94].dispatcher internalJobs 16427
scalar FogSequentialForward.fog[94].dispatcher externalJobs 5778344
scalar FogSequentialForward.fog[94].dispatcher remoteJobs 5778558
scalar FogSequentialForward.fog[94].dispatcher probeQueries 0
scalar FogSequentialForward.fog[94].dispatcher probeAnswers 0
scalar FogSequentialForward.fog[94].dispatcher droppedJobsSLA 1260
scalar FogSequentialForward.fog[94].dispatcher jobs_class_1 5794771
scalar FogSequentialForward.fog[94].dispatcher remoteJobs_class_1 5778558
scalar FogSequentialForward.fog[94].dispatcher localJobs_class_1 14953
scalar FogSequentialForward.fog[94].dispatcher droppedJobsSLA_class_1 1260
scalar FogSequentialForward.fog[94].server[0] rho 1
scalar FogSequentialForward.fog[94].server[0] congestionRatio 0
scalar FogSequentialForward.fog[94].server[0] totalJobs 14953
scalar FogSequentialForward.fog[94].server[0] droppedJobsQueue 880
scalar FogSequentialForward.fog[94].server[0] droppedJobsTimout 0
scalar FogSequentialForward.fog[94].server[0] droppedJobsSLA 9302
scalar FogSequentialForward.fog[94].server[0] droppedJobsTotal 10182
scalar FogSequentialForward.fog[95].dispatcher localJobs 14987
scalar FogSequentialForward.fog[95].dispatcher internalJobs 16245
scalar FogSequentialForward.fog[95].dispatcher externalJobs 5770172
scalar FogSequentialForward.fog[95].dispatcher remoteJobs 5770226
scalar FogSequentialForward.fog[95].dispatcher probeQueries 0
scalar FogSequentialForward.fog[95].dispatcher probeAnswers 0
scalar FogSequentialForward.fog[95].dispatcher droppedJobsSLA 1204
scalar FogSequentialForward.fog[95].dispatcher jobs_class_1 5786417
scalar FogSequentialForward.fog[95].dispatcher remoteJobs_class_1 5770226
scalar FogSequentialForward.fog[95].dispatcher localJobs_class_1 14987
scalar FogSequentialForward.fog[95].dispatcher droppedJobsSLA_class_1 1204
scalar FogSequentialForward.fog[95].server[0] rho 1
scalar FogSequentialForward.fog[95].server[0] congestionRatio 0
scalar FogSequentialForward.fog[95].server[0] totalJobs 14987
scalar FogSequentialForward.fog[95].server[0] droppedJobsQueue 888
scalar FogSequentialForward.fog[95].server[0] droppedJobsTimout 0
scalar FogSequentialForward.fog[95].server[0] droppedJobsSLA 9334
scalar FogSequentialForward.fog[95].server[0] droppedJobsTotal 10222
scalar FogSequentialForward.fog[96].dispatcher localJobs 14929
scalar FogSequentialForward.fog[96].dispatcher internalJobs 16163
scalar FogSequentialForward.fog[96].dispatcher externalJobs 5768943
scalar FogSequentialForward.fog[96].dispatcher remoteJobs 5768972
scalar FogSequentialForward.fog[96].dispatcher probeQueries 0
scalar FogSequentialForward.fog[96].dispatcher probeAnswers 0
scalar FogSequentialForward.fog[96].dispatcher droppedJobsSLA 1205
scalar FogSequentialForward.fog[96].dispatcher jobs_class_1 5785106
scalar FogSequentialForward.fog[96].dispatcher remoteJobs_class_1 5768972
scalar FogSequentialForward.fog[96].dispatcher localJobs_class_1 14929
scalar FogSequentialForward.fog[96].dispatcher droppedJobsSLA_class_1 1205
scalar FogSequentialForward.fog[96].server[0] rho 1
scalar FogSequentialForward.fog[96].server[0] congestionRatio 0
scalar FogSequentialForward.fog[96].server[0] totalJobs 14929
scalar FogSequentialForward.fog[96].server[0] droppedJobsQueue 880
scalar FogSequentialForward.fog[96].server[0] droppedJobsTimout 0
scalar FogSequentialForward.fog[96].server[0] droppedJobsSLA 9358
scalar FogSequentialForward.fog[96].server[0] droppedJobsTotal 10238
scalar FogSequentialForward.fog[97].dispatcher localJobs 14920
scalar FogSequentialForward.fog[97].dispatcher internalJobs 16156
scalar FogSequentialForward.fog[97].dispatcher externalJobs 5774163
scalar FogSequentialForward.fog[97].dispatcher remoteJobs 5774240
scalar FogSequentialForward.fog[97].dispatcher probeQueries 0
scalar FogSequentialForward.fog[97].dispatcher probeAnswers 0
scalar FogSequentialForward.fog[97].dispatcher droppedJobsSLA 1159
scalar FogSequentialForward.fog[97].dispatcher jobs_class_1 5790319
scalar FogSequentialForward.fog[97].dispatcher remoteJobs_class_1 5774240
scalar FogSequentialForward.fog[97].dispatcher localJobs_class_1 14920
scalar FogSequentialForward.fog[97].dispatcher droppedJobsSLA_class_1 1159
scalar FogSequentialForward.fog[97].server[0] rho 0.9999994635582
scalar FogSequentialForward.fog[97].server[0] congestionRatio 0
scalar FogSequentialForward.fog[97].server[0] totalJobs 14920
scalar FogSequentialForward.fog[97].server[0] droppedJobsQueue 881
scalar FogSequentialForward.fog[97].server[0] droppedJobsTimout 0
scalar FogSequentialForward.fog[97].server[0] droppedJobsSLA 9202
scalar FogSequentialForward.fog[97].server[0] droppedJobsTotal 10083
scalar FogSequentialForward.fog[98].dispatcher localJobs 15011
scalar FogSequentialForward.fog[98].dispatcher internalJobs 16070
scalar FogSequentialForward.fog[98].dispatcher externalJobs 5774190
scalar FogSequentialForward.fog[98].dispatcher remoteJobs 5774075
scalar FogSequentialForward.fog[98].dispatcher probeQueries 0
scalar FogSequentialForward.fog[98].dispatcher probeAnswers 0
scalar FogSequentialForward.fog[98].dispatcher droppedJobsSLA 1174
scalar FogSequentialForward.fog[98].dispatcher jobs_class_1 5790260
scalar FogSequentialForward.fog[98].dispatcher remoteJobs_class_1 5774075
scalar FogSequentialForward.fog[98].dispatcher localJobs_class_1 15011
scalar FogSequentialForward.fog[98].dispatcher droppedJobsSLA_class_1 1174
scalar FogSequentialForward.fog[98].server[0] rho 0.99999982118607
scalar FogSequentialForward.fog[98].server[0] congestionRatio 0
scalar FogSequentialForward.fog[98].server[0] totalJobs 15011
scalar FogSequentialForward.fog[98].server[0] droppedJobsQueue 885
scalar FogSequentialForward.fog[98].server[0] droppedJobsTimout 0
scalar FogSequentialForward.fog[98].server[0] droppedJobsSLA 9392
scalar FogSequentialForward.fog[98].server[0] droppedJobsTotal 10277
scalar FogSequentialForward.fog[99].dispatcher localJobs 14986
scalar FogSequentialForward.fog[99].dispatcher internalJobs 15881
scalar FogSequentialForward.fog[99].dispatcher externalJobs 5776394
scalar FogSequentialForward.fog[99].dispatcher remoteJobs 5776072
scalar FogSequentialForward.fog[99].dispatcher probeQueries 0
scalar FogSequentialForward.fog[99].dispatcher probeAnswers 0
scalar FogSequentialForward.fog[99].dispatcher droppedJobsSLA 1217
scalar FogSequentialForward.fog[99].dispatcher jobs_class_1 5792275
scalar FogSequentialForward.fog[99].dispatcher remoteJobs_class_1 5776072
scalar FogSequentialForward.fog[99].dispatcher localJobs_class_1 14986
scalar FogSequentialForward.fog[99].dispatcher droppedJobsSLA_class_1 1217
scalar FogSequentialForward.fog[99].server[0] rho 0.99999970197678
scalar FogSequentialForward.fog[99].server[0] congestionRatio 0
scalar FogSequentialForward.fog[99].server[0] totalJobs 14986
scalar FogSequentialForward.fog[99].server[0] droppedJobsQueue 886
scalar FogSequentialForward.fog[99].server[0] droppedJobsTimout 0
scalar FogSequentialForward.fog[99].server[0] droppedJobsSLA 9361
scalar FogSequentialForward.fog[99].server[0] droppedJobsTotal 10247
scalar FogSequentialForward.sink avg_responseTime_1 12.67463439319
scalar FogSequentialForward.sink p90_responseTime_1 1.602160973566
scalar FogSequentialForward.sink med_responseTime_1 1.602160973566
scalar FogSequentialForward.sink avg_delayTime_1 0
scalar FogSequentialForward.sink p90_delayTime_1 0
scalar FogSequentialForward.sink med_delayTime_1 0
scalar FogSequentialForward.sink avg_queuingTime_1 8.3492452961916
scalar FogSequentialForward.sink p90_queuingTime_1 0
scalar FogSequentialForward.sink med_queuingTime_1 0
scalar FogSequentialForward.sink avg_serviceTime_1 1.6721882011996
scalar FogSequentialForward.sink p90_serviceTime_1 1.511586127517
scalar FogSequentialForward.sink med_serviceTime_1 1.511586127517
scalar FogSequentialForward.sink avg_balancerTime_1 2.6532008957982
scalar FogSequentialForward.sink p90_balancerTime_1 0
scalar FogSequentialForward.sink med_balancerTime_1 0
scalar FogSequentialForward.sink avg_balancerCount_1 159.87430513763
scalar FogSequentialForward.sink p90_balancerCount_1 1
scalar FogSequentialForward.sink med_balancerCount_1 1

