version 2
run Fog-mul_001-rho_05-thr_11-3-20190713-00:37:52-16653
attr configname Fog-mul_001-rho_05-thr_11
attr datetime 20190713-00:37:52
attr experiment Fog-mul_001-rho_05-thr_11
attr inifile FogSequentialForward.ini
attr iterationvars ""
attr iterationvarsf ""
attr measurement ""
attr network FogSequentialForward
attr processid 16653
attr repetition 3
attr replication #3
attr resultdir results
attr runnumber 3
attr seedset 3
param FogSequentialForward.proctimeMul 0.01
param FogSequentialForward.rho 0.5
param FogSequentialForward.fog[*].dispatcher.thr 11
param FogSequentialForward.nSources 100
param FogSequentialForward.rho 0.9
param FogSequentialForward.proctimeMul 1.0
param FogSequentialForward.source[*].appId 1
param FogSequentialForward.source[*].realTime true
param FogSequentialForward.source[*].multiHop true
param FogSequentialForward.fog[*].nServers 1
param FogSequentialForward.fog[*].dispatcher.fanOut 1
param FogSequentialForward.fog[*].server[*].timeSlice -1s
param FogSequentialForward.fog[*].server[*].timeout -1s
param FogSequentialForward.fog[*].server[*].capacity 20
param FogSequentialForward.fog[*].server[*].fifo true
param FogSequentialForward.fog[*].server[*].maxServiceTime -1s
param FogSequentialForward.fog[*].dispatcher.thr 1

scalar FogSequentialForward.fog[0].dispatcher localJobs 897633
scalar FogSequentialForward.fog[0].dispatcher internalJobs 903008
scalar FogSequentialForward.fog[0].dispatcher externalJobs 1340632
scalar FogSequentialForward.fog[0].dispatcher remoteJobs 1341646
scalar FogSequentialForward.fog[0].dispatcher probeQueries 0
scalar FogSequentialForward.fog[0].dispatcher probeAnswers 0
scalar FogSequentialForward.fog[0].dispatcher droppedJobsSLA 4361
scalar FogSequentialForward.fog[0].dispatcher jobs_class_1 2243640
scalar FogSequentialForward.fog[0].dispatcher remoteJobs_class_1 1341646
scalar FogSequentialForward.fog[0].dispatcher localJobs_class_1 897633
scalar FogSequentialForward.fog[0].dispatcher droppedJobsSLA_class_1 4361
scalar FogSequentialForward.fog[0].server[0] rho 1
scalar FogSequentialForward.fog[0].server[0] congestionRatio 0
scalar FogSequentialForward.fog[0].server[0] totalJobs 897633
scalar FogSequentialForward.fog[0].server[0] droppedJobsQueue 15
scalar FogSequentialForward.fog[0].server[0] droppedJobsTimout 0
scalar FogSequentialForward.fog[0].server[0] droppedJobsSLA 397280
scalar FogSequentialForward.fog[0].server[0] droppedJobsTotal 397295
scalar FogSequentialForward.fog[1].dispatcher localJobs 897197
scalar FogSequentialForward.fog[1].dispatcher internalJobs 902159
scalar FogSequentialForward.fog[1].dispatcher externalJobs 1337819
scalar FogSequentialForward.fog[1].dispatcher remoteJobs 1338397
scalar FogSequentialForward.fog[1].dispatcher probeQueries 0
scalar FogSequentialForward.fog[1].dispatcher probeAnswers 0
scalar FogSequentialForward.fog[1].dispatcher droppedJobsSLA 4384
scalar FogSequentialForward.fog[1].dispatcher jobs_class_1 2239978
scalar FogSequentialForward.fog[1].dispatcher remoteJobs_class_1 1338397
scalar FogSequentialForward.fog[1].dispatcher localJobs_class_1 897197
scalar FogSequentialForward.fog[1].dispatcher droppedJobsSLA_class_1 4384
scalar FogSequentialForward.fog[1].server[0] rho 1
scalar FogSequentialForward.fog[1].server[0] congestionRatio 0
scalar FogSequentialForward.fog[1].server[0] totalJobs 897197
scalar FogSequentialForward.fog[1].server[0] droppedJobsQueue 23
scalar FogSequentialForward.fog[1].server[0] droppedJobsTimout 0
scalar FogSequentialForward.fog[1].server[0] droppedJobsSLA 396835
scalar FogSequentialForward.fog[1].server[0] droppedJobsTotal 396858
scalar FogSequentialForward.fog[2].dispatcher localJobs 897262
scalar FogSequentialForward.fog[2].dispatcher internalJobs 901171
scalar FogSequentialForward.fog[2].dispatcher externalJobs 1337521
scalar FogSequentialForward.fog[2].dispatcher remoteJobs 1336930
scalar FogSequentialForward.fog[2].dispatcher probeQueries 0
scalar FogSequentialForward.fog[2].dispatcher probeAnswers 0
scalar FogSequentialForward.fog[2].dispatcher droppedJobsSLA 4500
scalar FogSequentialForward.fog[2].dispatcher jobs_class_1 2238692
scalar FogSequentialForward.fog[2].dispatcher remoteJobs_class_1 1336930
scalar FogSequentialForward.fog[2].dispatcher localJobs_class_1 897262
scalar FogSequentialForward.fog[2].dispatcher droppedJobsSLA_class_1 4500
scalar FogSequentialForward.fog[2].server[0] rho 0.99999779462814
scalar FogSequentialForward.fog[2].server[0] congestionRatio 0
scalar FogSequentialForward.fog[2].server[0] totalJobs 897262
scalar FogSequentialForward.fog[2].server[0] droppedJobsQueue 14
scalar FogSequentialForward.fog[2].server[0] droppedJobsTimout 0
scalar FogSequentialForward.fog[2].server[0] droppedJobsSLA 397384
scalar FogSequentialForward.fog[2].server[0] droppedJobsTotal 397398
scalar FogSequentialForward.fog[3].dispatcher localJobs 897632
scalar FogSequentialForward.fog[3].dispatcher internalJobs 902709
scalar FogSequentialForward.fog[3].dispatcher externalJobs 1337894
scalar FogSequentialForward.fog[3].dispatcher remoteJobs 1338646
scalar FogSequentialForward.fog[3].dispatcher probeQueries 0
scalar FogSequentialForward.fog[3].dispatcher probeAnswers 0
scalar FogSequentialForward.fog[3].dispatcher droppedJobsSLA 4325
scalar FogSequentialForward.fog[3].dispatcher jobs_class_1 2240603
scalar FogSequentialForward.fog[3].dispatcher remoteJobs_class_1 1338646
scalar FogSequentialForward.fog[3].dispatcher localJobs_class_1 897632
scalar FogSequentialForward.fog[3].dispatcher droppedJobsSLA_class_1 4325
scalar FogSequentialForward.fog[3].server[0] rho 1
scalar FogSequentialForward.fog[3].server[0] congestionRatio 0
scalar FogSequentialForward.fog[3].server[0] totalJobs 897632
scalar FogSequentialForward.fog[3].server[0] droppedJobsQueue 12
scalar FogSequentialForward.fog[3].server[0] droppedJobsTimout 0
scalar FogSequentialForward.fog[3].server[0] droppedJobsSLA 397069
scalar FogSequentialForward.fog[3].server[0] droppedJobsTotal 397081
scalar FogSequentialForward.fog[4].dispatcher localJobs 897114
scalar FogSequentialForward.fog[4].dispatcher internalJobs 902877
scalar FogSequentialForward.fog[4].dispatcher externalJobs 1339477
scalar FogSequentialForward.fog[4].dispatcher remoteJobs 1340870
scalar FogSequentialForward.fog[4].dispatcher probeQueries 0
scalar FogSequentialForward.fog[4].dispatcher probeAnswers 0
scalar FogSequentialForward.fog[4].dispatcher droppedJobsSLA 4370
scalar FogSequentialForward.fog[4].dispatcher jobs_class_1 2242354
scalar FogSequentialForward.fog[4].dispatcher remoteJobs_class_1 1340870
scalar FogSequentialForward.fog[4].dispatcher localJobs_class_1 897114
scalar FogSequentialForward.fog[4].dispatcher droppedJobsSLA_class_1 4370
scalar FogSequentialForward.fog[4].server[0] rho 1
scalar FogSequentialForward.fog[4].server[0] congestionRatio 0
scalar FogSequentialForward.fog[4].server[0] totalJobs 897114
scalar FogSequentialForward.fog[4].server[0] droppedJobsQueue 20
scalar FogSequentialForward.fog[4].server[0] droppedJobsTimout 0
scalar FogSequentialForward.fog[4].server[0] droppedJobsSLA 396828
scalar FogSequentialForward.fog[4].server[0] droppedJobsTotal 396848
scalar FogSequentialForward.fog[5].dispatcher localJobs 897099
scalar FogSequentialForward.fog[5].dispatcher internalJobs 900729
scalar FogSequentialForward.fog[5].dispatcher externalJobs 1338569
scalar FogSequentialForward.fog[5].dispatcher remoteJobs 1337954
scalar FogSequentialForward.fog[5].dispatcher probeQueries 0
scalar FogSequentialForward.fog[5].dispatcher probeAnswers 0
scalar FogSequentialForward.fog[5].dispatcher droppedJobsSLA 4245
scalar FogSequentialForward.fog[5].dispatcher jobs_class_1 2239298
scalar FogSequentialForward.fog[5].dispatcher remoteJobs_class_1 1337954
scalar FogSequentialForward.fog[5].dispatcher localJobs_class_1 897099
scalar FogSequentialForward.fog[5].dispatcher droppedJobsSLA_class_1 4245
scalar FogSequentialForward.fog[5].server[0] rho 0.99999672174454
scalar FogSequentialForward.fog[5].server[0] congestionRatio 0
scalar FogSequentialForward.fog[5].server[0] totalJobs 897099
scalar FogSequentialForward.fog[5].server[0] droppedJobsQueue 16
scalar FogSequentialForward.fog[5].server[0] droppedJobsTimout 0
scalar FogSequentialForward.fog[5].server[0] droppedJobsSLA 397136
scalar FogSequentialForward.fog[5].server[0] droppedJobsTotal 397152
scalar FogSequentialForward.fog[6].dispatcher localJobs 896875
scalar FogSequentialForward.fog[6].dispatcher internalJobs 900642
scalar FogSequentialForward.fog[6].dispatcher externalJobs 1337351
scalar FogSequentialForward.fog[6].dispatcher remoteJobs 1336722
scalar FogSequentialForward.fog[6].dispatcher probeQueries 0
scalar FogSequentialForward.fog[6].dispatcher probeAnswers 0
scalar FogSequentialForward.fog[6].dispatcher droppedJobsSLA 4396
scalar FogSequentialForward.fog[6].dispatcher jobs_class_1 2237993
scalar FogSequentialForward.fog[6].dispatcher remoteJobs_class_1 1336722
scalar FogSequentialForward.fog[6].dispatcher localJobs_class_1 896875
scalar FogSequentialForward.fog[6].dispatcher droppedJobsSLA_class_1 4396
scalar FogSequentialForward.fog[6].server[0] rho 1
scalar FogSequentialForward.fog[6].server[0] congestionRatio 0
scalar FogSequentialForward.fog[6].server[0] totalJobs 896875
scalar FogSequentialForward.fog[6].server[0] droppedJobsQueue 14
scalar FogSequentialForward.fog[6].server[0] droppedJobsTimout 0
scalar FogSequentialForward.fog[6].server[0] droppedJobsSLA 396681
scalar FogSequentialForward.fog[6].server[0] droppedJobsTotal 396695
scalar FogSequentialForward.fog[7].dispatcher localJobs 897181
scalar FogSequentialForward.fog[7].dispatcher internalJobs 900545
scalar FogSequentialForward.fog[7].dispatcher externalJobs 1338129
scalar FogSequentialForward.fog[7].dispatcher remoteJobs 1337140
scalar FogSequentialForward.fog[7].dispatcher probeQueries 0
scalar FogSequentialForward.fog[7].dispatcher probeAnswers 0
scalar FogSequentialForward.fog[7].dispatcher droppedJobsSLA 4353
scalar FogSequentialForward.fog[7].dispatcher jobs_class_1 2238674
scalar FogSequentialForward.fog[7].dispatcher remoteJobs_class_1 1337140
scalar FogSequentialForward.fog[7].dispatcher localJobs_class_1 897181
scalar FogSequentialForward.fog[7].dispatcher droppedJobsSLA_class_1 4353
scalar FogSequentialForward.fog[7].server[0] rho 0.99999845027924
scalar FogSequentialForward.fog[7].server[0] congestionRatio 0
scalar FogSequentialForward.fog[7].server[0] totalJobs 897181
scalar FogSequentialForward.fog[7].server[0] droppedJobsQueue 16
scalar FogSequentialForward.fog[7].server[0] droppedJobsTimout 0
scalar FogSequentialForward.fog[7].server[0] droppedJobsSLA 397119
scalar FogSequentialForward.fog[7].server[0] droppedJobsTotal 397135
scalar FogSequentialForward.fog[8].dispatcher localJobs 897566
scalar FogSequentialForward.fog[8].dispatcher internalJobs 902378
scalar FogSequentialForward.fog[8].dispatcher externalJobs 1339990
scalar FogSequentialForward.fog[8].dispatcher remoteJobs 1340388
scalar FogSequentialForward.fog[8].dispatcher probeQueries 0
scalar FogSequentialForward.fog[8].dispatcher probeAnswers 0
scalar FogSequentialForward.fog[8].dispatcher droppedJobsSLA 4414
scalar FogSequentialForward.fog[8].dispatcher jobs_class_1 2242368
scalar FogSequentialForward.fog[8].dispatcher remoteJobs_class_1 1340388
scalar FogSequentialForward.fog[8].dispatcher localJobs_class_1 897566
scalar FogSequentialForward.fog[8].dispatcher droppedJobsSLA_class_1 4414
scalar FogSequentialForward.fog[8].server[0] rho 1
scalar FogSequentialForward.fog[8].server[0] congestionRatio 0
scalar FogSequentialForward.fog[8].server[0] totalJobs 897566
scalar FogSequentialForward.fog[8].server[0] droppedJobsQueue 15
scalar FogSequentialForward.fog[8].server[0] droppedJobsTimout 0
scalar FogSequentialForward.fog[8].server[0] droppedJobsSLA 397532
scalar FogSequentialForward.fog[8].server[0] droppedJobsTotal 397547
scalar FogSequentialForward.fog[9].dispatcher localJobs 897205
scalar FogSequentialForward.fog[9].dispatcher internalJobs 902616
scalar FogSequentialForward.fog[9].dispatcher externalJobs 1339780
scalar FogSequentialForward.fog[9].dispatcher remoteJobs 1340820
scalar FogSequentialForward.fog[9].dispatcher probeQueries 0
scalar FogSequentialForward.fog[9].dispatcher probeAnswers 0
scalar FogSequentialForward.fog[9].dispatcher droppedJobsSLA 4371
scalar FogSequentialForward.fog[9].dispatcher jobs_class_1 2242396
scalar FogSequentialForward.fog[9].dispatcher remoteJobs_class_1 1340820
scalar FogSequentialForward.fog[9].dispatcher localJobs_class_1 897205
scalar FogSequentialForward.fog[9].dispatcher droppedJobsSLA_class_1 4371
scalar FogSequentialForward.fog[9].server[0] rho 1
scalar FogSequentialForward.fog[9].server[0] congestionRatio 0
scalar FogSequentialForward.fog[9].server[0] totalJobs 897205
scalar FogSequentialForward.fog[9].server[0] droppedJobsQueue 14
scalar FogSequentialForward.fog[9].server[0] droppedJobsTimout 0
scalar FogSequentialForward.fog[9].server[0] droppedJobsSLA 397493
scalar FogSequentialForward.fog[9].server[0] droppedJobsTotal 397507
scalar FogSequentialForward.fog[10].dispatcher localJobs 897779
scalar FogSequentialForward.fog[10].dispatcher internalJobs 902916
scalar FogSequentialForward.fog[10].dispatcher externalJobs 1339925
scalar FogSequentialForward.fog[10].dispatcher remoteJobs 1340645
scalar FogSequentialForward.fog[10].dispatcher probeQueries 0
scalar FogSequentialForward.fog[10].dispatcher probeAnswers 0
scalar FogSequentialForward.fog[10].dispatcher droppedJobsSLA 4417
scalar FogSequentialForward.fog[10].dispatcher jobs_class_1 2242841
scalar FogSequentialForward.fog[10].dispatcher remoteJobs_class_1 1340645
scalar FogSequentialForward.fog[10].dispatcher localJobs_class_1 897779
scalar FogSequentialForward.fog[10].dispatcher droppedJobsSLA_class_1 4417
scalar FogSequentialForward.fog[10].server[0] rho 1
scalar FogSequentialForward.fog[10].server[0] congestionRatio 0
scalar FogSequentialForward.fog[10].server[0] totalJobs 897779
scalar FogSequentialForward.fog[10].server[0] droppedJobsQueue 16
scalar FogSequentialForward.fog[10].server[0] droppedJobsTimout 0
scalar FogSequentialForward.fog[10].server[0] droppedJobsSLA 397564
scalar FogSequentialForward.fog[10].server[0] droppedJobsTotal 397580
scalar FogSequentialForward.fog[11].dispatcher localJobs 897551
scalar FogSequentialForward.fog[11].dispatcher internalJobs 902397
scalar FogSequentialForward.fog[11].dispatcher externalJobs 1340032
scalar FogSequentialForward.fog[11].dispatcher remoteJobs 1340475
scalar FogSequentialForward.fog[11].dispatcher probeQueries 0
scalar FogSequentialForward.fog[11].dispatcher probeAnswers 0
scalar FogSequentialForward.fog[11].dispatcher droppedJobsSLA 4403
scalar FogSequentialForward.fog[11].dispatcher jobs_class_1 2242429
scalar FogSequentialForward.fog[11].dispatcher remoteJobs_class_1 1340475
scalar FogSequentialForward.fog[11].dispatcher localJobs_class_1 897551
scalar FogSequentialForward.fog[11].dispatcher droppedJobsSLA_class_1 4403
scalar FogSequentialForward.fog[11].server[0] rho 0.99999725818634
scalar FogSequentialForward.fog[11].server[0] congestionRatio 0
scalar FogSequentialForward.fog[11].server[0] totalJobs 897551
scalar FogSequentialForward.fog[11].server[0] droppedJobsQueue 24
scalar FogSequentialForward.fog[11].server[0] droppedJobsTimout 0
scalar FogSequentialForward.fog[11].server[0] droppedJobsSLA 396524
scalar FogSequentialForward.fog[11].server[0] droppedJobsTotal 396548
scalar FogSequentialForward.fog[12].dispatcher localJobs 897573
scalar FogSequentialForward.fog[12].dispatcher internalJobs 900922
scalar FogSequentialForward.fog[12].dispatcher externalJobs 1340419
scalar FogSequentialForward.fog[12].dispatcher remoteJobs 1339357
scalar FogSequentialForward.fog[12].dispatcher probeQueries 0
scalar FogSequentialForward.fog[12].dispatcher probeAnswers 0
scalar FogSequentialForward.fog[12].dispatcher droppedJobsSLA 4411
scalar FogSequentialForward.fog[12].dispatcher jobs_class_1 2241341
scalar FogSequentialForward.fog[12].dispatcher remoteJobs_class_1 1339357
scalar FogSequentialForward.fog[12].dispatcher localJobs_class_1 897573
scalar FogSequentialForward.fog[12].dispatcher droppedJobsSLA_class_1 4411
scalar FogSequentialForward.fog[12].server[0] rho 1
scalar FogSequentialForward.fog[12].server[0] congestionRatio 0
scalar FogSequentialForward.fog[12].server[0] totalJobs 897573
scalar FogSequentialForward.fog[12].server[0] droppedJobsQueue 15
scalar FogSequentialForward.fog[12].server[0] droppedJobsTimout 0
scalar FogSequentialForward.fog[12].server[0] droppedJobsSLA 397300
scalar FogSequentialForward.fog[12].server[0] droppedJobsTotal 397315
scalar FogSequentialForward.fog[13].dispatcher localJobs 897548
scalar FogSequentialForward.fog[13].dispatcher internalJobs 900226
scalar FogSequentialForward.fog[13].dispatcher externalJobs 1339365
scalar FogSequentialForward.fog[13].dispatcher remoteJobs 1337726
scalar FogSequentialForward.fog[13].dispatcher probeQueries 0
scalar FogSequentialForward.fog[13].dispatcher probeAnswers 0
scalar FogSequentialForward.fog[13].dispatcher droppedJobsSLA 4317
scalar FogSequentialForward.fog[13].dispatcher jobs_class_1 2239591
scalar FogSequentialForward.fog[13].dispatcher remoteJobs_class_1 1337726
scalar FogSequentialForward.fog[13].dispatcher localJobs_class_1 897548
scalar FogSequentialForward.fog[13].dispatcher droppedJobsSLA_class_1 4317
scalar FogSequentialForward.fog[13].server[0] rho 1
scalar FogSequentialForward.fog[13].server[0] congestionRatio 0
scalar FogSequentialForward.fog[13].server[0] totalJobs 897548
scalar FogSequentialForward.fog[13].server[0] droppedJobsQueue 16
scalar FogSequentialForward.fog[13].server[0] droppedJobsTimout 0
scalar FogSequentialForward.fog[13].server[0] droppedJobsSLA 397341
scalar FogSequentialForward.fog[13].server[0] droppedJobsTotal 397357
scalar FogSequentialForward.fog[14].dispatcher localJobs 897758
scalar FogSequentialForward.fog[14].dispatcher internalJobs 902059
scalar FogSequentialForward.fog[14].dispatcher externalJobs 1338948
scalar FogSequentialForward.fog[14].dispatcher remoteJobs 1338890
scalar FogSequentialForward.fog[14].dispatcher probeQueries 0
scalar FogSequentialForward.fog[14].dispatcher probeAnswers 0
scalar FogSequentialForward.fog[14].dispatcher droppedJobsSLA 4359
scalar FogSequentialForward.fog[14].dispatcher jobs_class_1 2241007
scalar FogSequentialForward.fog[14].dispatcher remoteJobs_class_1 1338890
scalar FogSequentialForward.fog[14].dispatcher localJobs_class_1 897758
scalar FogSequentialForward.fog[14].dispatcher droppedJobsSLA_class_1 4359
scalar FogSequentialForward.fog[14].server[0] rho 0.99999666213989
scalar FogSequentialForward.fog[14].server[0] congestionRatio 0
scalar FogSequentialForward.fog[14].server[0] totalJobs 897758
scalar FogSequentialForward.fog[14].server[0] droppedJobsQueue 14
scalar FogSequentialForward.fog[14].server[0] droppedJobsTimout 0
scalar FogSequentialForward.fog[14].server[0] droppedJobsSLA 396692
scalar FogSequentialForward.fog[14].server[0] droppedJobsTotal 396706
scalar FogSequentialForward.fog[15].dispatcher localJobs 897036
scalar FogSequentialForward.fog[15].dispatcher internalJobs 901652
scalar FogSequentialForward.fog[15].dispatcher externalJobs 1337740
scalar FogSequentialForward.fog[15].dispatcher remoteJobs 1338040
scalar FogSequentialForward.fog[15].dispatcher probeQueries 0
scalar FogSequentialForward.fog[15].dispatcher probeAnswers 0
scalar FogSequentialForward.fog[15].dispatcher droppedJobsSLA 4316
scalar FogSequentialForward.fog[15].dispatcher jobs_class_1 2239392
scalar FogSequentialForward.fog[15].dispatcher remoteJobs_class_1 1338040
scalar FogSequentialForward.fog[15].dispatcher localJobs_class_1 897036
scalar FogSequentialForward.fog[15].dispatcher droppedJobsSLA_class_1 4316
scalar FogSequentialForward.fog[15].server[0] rho 1
scalar FogSequentialForward.fog[15].server[0] congestionRatio 0
scalar FogSequentialForward.fog[15].server[0] totalJobs 897036
scalar FogSequentialForward.fog[15].server[0] droppedJobsQueue 22
scalar FogSequentialForward.fog[15].server[0] droppedJobsTimout 0
scalar FogSequentialForward.fog[15].server[0] droppedJobsSLA 397113
scalar FogSequentialForward.fog[15].server[0] droppedJobsTotal 397135
scalar FogSequentialForward.fog[16].dispatcher localJobs 897770
scalar FogSequentialForward.fog[16].dispatcher internalJobs 900344
scalar FogSequentialForward.fog[16].dispatcher externalJobs 1338773
scalar FogSequentialForward.fog[16].dispatcher remoteJobs 1336987
scalar FogSequentialForward.fog[16].dispatcher probeQueries 0
scalar FogSequentialForward.fog[16].dispatcher probeAnswers 0
scalar FogSequentialForward.fog[16].dispatcher droppedJobsSLA 4360
scalar FogSequentialForward.fog[16].dispatcher jobs_class_1 2239117
scalar FogSequentialForward.fog[16].dispatcher remoteJobs_class_1 1336987
scalar FogSequentialForward.fog[16].dispatcher localJobs_class_1 897770
scalar FogSequentialForward.fog[16].dispatcher droppedJobsSLA_class_1 4360
scalar FogSequentialForward.fog[16].server[0] rho 0.99999988079071
scalar FogSequentialForward.fog[16].server[0] congestionRatio 0
scalar FogSequentialForward.fog[16].server[0] totalJobs 897770
scalar FogSequentialForward.fog[16].server[0] droppedJobsQueue 16
scalar FogSequentialForward.fog[16].server[0] droppedJobsTimout 0
scalar FogSequentialForward.fog[16].server[0] droppedJobsSLA 397074
scalar FogSequentialForward.fog[16].server[0] droppedJobsTotal 397090
scalar FogSequentialForward.fog[17].dispatcher localJobs 897433
scalar FogSequentialForward.fog[17].dispatcher internalJobs 901872
scalar FogSequentialForward.fog[17].dispatcher externalJobs 1338144
scalar FogSequentialForward.fog[17].dispatcher remoteJobs 1338216
scalar FogSequentialForward.fog[17].dispatcher probeQueries 0
scalar FogSequentialForward.fog[17].dispatcher probeAnswers 0
scalar FogSequentialForward.fog[17].dispatcher droppedJobsSLA 4367
scalar FogSequentialForward.fog[17].dispatcher jobs_class_1 2240016
scalar FogSequentialForward.fog[17].dispatcher remoteJobs_class_1 1338216
scalar FogSequentialForward.fog[17].dispatcher localJobs_class_1 897433
scalar FogSequentialForward.fog[17].dispatcher droppedJobsSLA_class_1 4367
scalar FogSequentialForward.fog[17].server[0] rho 1
scalar FogSequentialForward.fog[17].server[0] congestionRatio 0
scalar FogSequentialForward.fog[17].server[0] totalJobs 897433
scalar FogSequentialForward.fog[17].server[0] droppedJobsQueue 11
scalar FogSequentialForward.fog[17].server[0] droppedJobsTimout 0
scalar FogSequentialForward.fog[17].server[0] droppedJobsSLA 397263
scalar FogSequentialForward.fog[17].server[0] droppedJobsTotal 397274
scalar FogSequentialForward.fog[18].dispatcher localJobs 896946
scalar FogSequentialForward.fog[18].dispatcher internalJobs 903309
scalar FogSequentialForward.fog[18].dispatcher externalJobs 1338951
scalar FogSequentialForward.fog[18].dispatcher remoteJobs 1340815
scalar FogSequentialForward.fog[18].dispatcher probeQueries 0
scalar FogSequentialForward.fog[18].dispatcher probeAnswers 0
scalar FogSequentialForward.fog[18].dispatcher droppedJobsSLA 4499
scalar FogSequentialForward.fog[18].dispatcher jobs_class_1 2242260
scalar FogSequentialForward.fog[18].dispatcher remoteJobs_class_1 1340815
scalar FogSequentialForward.fog[18].dispatcher localJobs_class_1 896946
scalar FogSequentialForward.fog[18].dispatcher droppedJobsSLA_class_1 4499
scalar FogSequentialForward.fog[18].server[0] rho 1
scalar FogSequentialForward.fog[18].server[0] congestionRatio 0
scalar FogSequentialForward.fog[18].server[0] totalJobs 896946
scalar FogSequentialForward.fog[18].server[0] droppedJobsQueue 16
scalar FogSequentialForward.fog[18].server[0] droppedJobsTimout 0
scalar FogSequentialForward.fog[18].server[0] droppedJobsSLA 397133
scalar FogSequentialForward.fog[18].server[0] droppedJobsTotal 397149
scalar FogSequentialForward.fog[19].dispatcher localJobs 897339
scalar FogSequentialForward.fog[19].dispatcher internalJobs 903139
scalar FogSequentialForward.fog[19].dispatcher externalJobs 1338789
scalar FogSequentialForward.fog[19].dispatcher remoteJobs 1340241
scalar FogSequentialForward.fog[19].dispatcher probeQueries 0
scalar FogSequentialForward.fog[19].dispatcher probeAnswers 0
scalar FogSequentialForward.fog[19].dispatcher droppedJobsSLA 4348
scalar FogSequentialForward.fog[19].dispatcher jobs_class_1 2241928
scalar FogSequentialForward.fog[19].dispatcher remoteJobs_class_1 1340241
scalar FogSequentialForward.fog[19].dispatcher localJobs_class_1 897339
scalar FogSequentialForward.fog[19].dispatcher droppedJobsSLA_class_1 4348
scalar FogSequentialForward.fog[19].server[0] rho 1
scalar FogSequentialForward.fog[19].server[0] congestionRatio 0
scalar FogSequentialForward.fog[19].server[0] totalJobs 897339
scalar FogSequentialForward.fog[19].server[0] droppedJobsQueue 14
scalar FogSequentialForward.fog[19].server[0] droppedJobsTimout 0
scalar FogSequentialForward.fog[19].server[0] droppedJobsSLA 397248
scalar FogSequentialForward.fog[19].server[0] droppedJobsTotal 397262
scalar FogSequentialForward.fog[20].dispatcher localJobs 897548
scalar FogSequentialForward.fog[20].dispatcher internalJobs 901324
scalar FogSequentialForward.fog[20].dispatcher externalJobs 1339191
scalar FogSequentialForward.fog[20].dispatcher remoteJobs 1338524
scalar FogSequentialForward.fog[20].dispatcher probeQueries 0
scalar FogSequentialForward.fog[20].dispatcher probeAnswers 0
scalar FogSequentialForward.fog[20].dispatcher droppedJobsSLA 4443
scalar FogSequentialForward.fog[20].dispatcher jobs_class_1 2240515
scalar FogSequentialForward.fog[20].dispatcher remoteJobs_class_1 1338524
scalar FogSequentialForward.fog[20].dispatcher localJobs_class_1 897548
scalar FogSequentialForward.fog[20].dispatcher droppedJobsSLA_class_1 4443
scalar FogSequentialForward.fog[20].server[0] rho 1
scalar FogSequentialForward.fog[20].server[0] congestionRatio 0
scalar FogSequentialForward.fog[20].server[0] totalJobs 897548
scalar FogSequentialForward.fog[20].server[0] droppedJobsQueue 19
scalar FogSequentialForward.fog[20].server[0] droppedJobsTimout 0
scalar FogSequentialForward.fog[20].server[0] droppedJobsSLA 396921
scalar FogSequentialForward.fog[20].server[0] droppedJobsTotal 396940
scalar FogSequentialForward.fog[21].dispatcher localJobs 897541
scalar FogSequentialForward.fog[21].dispatcher internalJobs 900698
scalar FogSequentialForward.fog[21].dispatcher externalJobs 1340646
scalar FogSequentialForward.fog[21].dispatcher remoteJobs 1339323
scalar FogSequentialForward.fog[21].dispatcher probeQueries 0
scalar FogSequentialForward.fog[21].dispatcher probeAnswers 0
scalar FogSequentialForward.fog[21].dispatcher droppedJobsSLA 4480
scalar FogSequentialForward.fog[21].dispatcher jobs_class_1 2241344
scalar FogSequentialForward.fog[21].dispatcher remoteJobs_class_1 1339323
scalar FogSequentialForward.fog[21].dispatcher localJobs_class_1 897541
scalar FogSequentialForward.fog[21].dispatcher droppedJobsSLA_class_1 4480
scalar FogSequentialForward.fog[21].server[0] rho 0.99999958276749
scalar FogSequentialForward.fog[21].server[0] congestionRatio 0
scalar FogSequentialForward.fog[21].server[0] totalJobs 897541
scalar FogSequentialForward.fog[21].server[0] droppedJobsQueue 11
scalar FogSequentialForward.fog[21].server[0] droppedJobsTimout 0
scalar FogSequentialForward.fog[21].server[0] droppedJobsSLA 397130
scalar FogSequentialForward.fog[21].server[0] droppedJobsTotal 397141
scalar FogSequentialForward.fog[22].dispatcher localJobs 897291
scalar FogSequentialForward.fog[22].dispatcher internalJobs 903748
scalar FogSequentialForward.fog[22].dispatcher externalJobs 1340799
scalar FogSequentialForward.fog[22].dispatcher remoteJobs 1342929
scalar FogSequentialForward.fog[22].dispatcher probeQueries 0
scalar FogSequentialForward.fog[22].dispatcher probeAnswers 0
scalar FogSequentialForward.fog[22].dispatcher droppedJobsSLA 4327
scalar FogSequentialForward.fog[22].dispatcher jobs_class_1 2244547
scalar FogSequentialForward.fog[22].dispatcher remoteJobs_class_1 1342929
scalar FogSequentialForward.fog[22].dispatcher localJobs_class_1 897291
scalar FogSequentialForward.fog[22].dispatcher droppedJobsSLA_class_1 4327
scalar FogSequentialForward.fog[22].server[0] rho 1
scalar FogSequentialForward.fog[22].server[0] congestionRatio 0
scalar FogSequentialForward.fog[22].server[0] totalJobs 897291
scalar FogSequentialForward.fog[22].server[0] droppedJobsQueue 15
scalar FogSequentialForward.fog[22].server[0] droppedJobsTimout 0
scalar FogSequentialForward.fog[22].server[0] droppedJobsSLA 396372
scalar FogSequentialForward.fog[22].server[0] droppedJobsTotal 396387
scalar FogSequentialForward.fog[23].dispatcher localJobs 897402
scalar FogSequentialForward.fog[23].dispatcher internalJobs 901463
scalar FogSequentialForward.fog[23].dispatcher externalJobs 1339360
scalar FogSequentialForward.fog[23].dispatcher remoteJobs 1338982
scalar FogSequentialForward.fog[23].dispatcher probeQueries 0
scalar FogSequentialForward.fog[23].dispatcher probeAnswers 0
scalar FogSequentialForward.fog[23].dispatcher droppedJobsSLA 4439
scalar FogSequentialForward.fog[23].dispatcher jobs_class_1 2240823
scalar FogSequentialForward.fog[23].dispatcher remoteJobs_class_1 1338982
scalar FogSequentialForward.fog[23].dispatcher localJobs_class_1 897402
scalar FogSequentialForward.fog[23].dispatcher droppedJobsSLA_class_1 4439
scalar FogSequentialForward.fog[23].server[0] rho 1
scalar FogSequentialForward.fog[23].server[0] congestionRatio 0
scalar FogSequentialForward.fog[23].server[0] totalJobs 897402
scalar FogSequentialForward.fog[23].server[0] droppedJobsQueue 15
scalar FogSequentialForward.fog[23].server[0] droppedJobsTimout 0
scalar FogSequentialForward.fog[23].server[0] droppedJobsSLA 396816
scalar FogSequentialForward.fog[23].server[0] droppedJobsTotal 396831
scalar FogSequentialForward.fog[24].dispatcher localJobs 897242
scalar FogSequentialForward.fog[24].dispatcher internalJobs 901044
scalar FogSequentialForward.fog[24].dispatcher externalJobs 1338647
scalar FogSequentialForward.fog[24].dispatcher remoteJobs 1338079
scalar FogSequentialForward.fog[24].dispatcher probeQueries 0
scalar FogSequentialForward.fog[24].dispatcher probeAnswers 0
scalar FogSequentialForward.fog[24].dispatcher droppedJobsSLA 4370
scalar FogSequentialForward.fog[24].dispatcher jobs_class_1 2239691
scalar FogSequentialForward.fog[24].dispatcher remoteJobs_class_1 1338079
scalar FogSequentialForward.fog[24].dispatcher localJobs_class_1 897242
scalar FogSequentialForward.fog[24].dispatcher droppedJobsSLA_class_1 4370
scalar FogSequentialForward.fog[24].server[0] rho 0.9999971985817
scalar FogSequentialForward.fog[24].server[0] congestionRatio 0
scalar FogSequentialForward.fog[24].server[0] totalJobs 897242
scalar FogSequentialForward.fog[24].server[0] droppedJobsQueue 13
scalar FogSequentialForward.fog[24].server[0] droppedJobsTimout 0
scalar FogSequentialForward.fog[24].server[0] droppedJobsSLA 396849
scalar FogSequentialForward.fog[24].server[0] droppedJobsTotal 396862
scalar FogSequentialForward.fog[25].dispatcher localJobs 897925
scalar FogSequentialForward.fog[25].dispatcher internalJobs 900898
scalar FogSequentialForward.fog[25].dispatcher externalJobs 1341209
scalar FogSequentialForward.fog[25].dispatcher remoteJobs 1339846
scalar FogSequentialForward.fog[25].dispatcher probeQueries 0
scalar FogSequentialForward.fog[25].dispatcher probeAnswers 0
scalar FogSequentialForward.fog[25].dispatcher droppedJobsSLA 4336
scalar FogSequentialForward.fog[25].dispatcher jobs_class_1 2242107
scalar FogSequentialForward.fog[25].dispatcher remoteJobs_class_1 1339846
scalar FogSequentialForward.fog[25].dispatcher localJobs_class_1 897925
scalar FogSequentialForward.fog[25].dispatcher droppedJobsSLA_class_1 4336
scalar FogSequentialForward.fog[25].server[0] rho 0.99999886751175
scalar FogSequentialForward.fog[25].server[0] congestionRatio 0
scalar FogSequentialForward.fog[25].server[0] totalJobs 897925
scalar FogSequentialForward.fog[25].server[0] droppedJobsQueue 15
scalar FogSequentialForward.fog[25].server[0] droppedJobsTimout 0
scalar FogSequentialForward.fog[25].server[0] droppedJobsSLA 397413
scalar FogSequentialForward.fog[25].server[0] droppedJobsTotal 397428
scalar FogSequentialForward.fog[26].dispatcher localJobs 897306
scalar FogSequentialForward.fog[26].dispatcher internalJobs 902304
scalar FogSequentialForward.fog[26].dispatcher externalJobs 1337622
scalar FogSequentialForward.fog[26].dispatcher remoteJobs 1338241
scalar FogSequentialForward.fog[26].dispatcher probeQueries 0
scalar FogSequentialForward.fog[26].dispatcher probeAnswers 0
scalar FogSequentialForward.fog[26].dispatcher droppedJobsSLA 4379
scalar FogSequentialForward.fog[26].dispatcher jobs_class_1 2239926
scalar FogSequentialForward.fog[26].dispatcher remoteJobs_class_1 1338241
scalar FogSequentialForward.fog[26].dispatcher localJobs_class_1 897306
scalar FogSequentialForward.fog[26].dispatcher droppedJobsSLA_class_1 4379
scalar FogSequentialForward.fog[26].server[0] rho 1
scalar FogSequentialForward.fog[26].server[0] congestionRatio 0
scalar FogSequentialForward.fog[26].server[0] totalJobs 897306
scalar FogSequentialForward.fog[26].server[0] droppedJobsQueue 14
scalar FogSequentialForward.fog[26].server[0] droppedJobsTimout 0
scalar FogSequentialForward.fog[26].server[0] droppedJobsSLA 396723
scalar FogSequentialForward.fog[26].server[0] droppedJobsTotal 396737
scalar FogSequentialForward.fog[27].dispatcher localJobs 897550
scalar FogSequentialForward.fog[27].dispatcher internalJobs 901933
scalar FogSequentialForward.fog[27].dispatcher externalJobs 1338936
scalar FogSequentialForward.fog[27].dispatcher remoteJobs 1338873
scalar FogSequentialForward.fog[27].dispatcher probeQueries 0
scalar FogSequentialForward.fog[27].dispatcher probeAnswers 0
scalar FogSequentialForward.fog[27].dispatcher droppedJobsSLA 4446
scalar FogSequentialForward.fog[27].dispatcher jobs_class_1 2240869
scalar FogSequentialForward.fog[27].dispatcher remoteJobs_class_1 1338873
scalar FogSequentialForward.fog[27].dispatcher localJobs_class_1 897550
scalar FogSequentialForward.fog[27].dispatcher droppedJobsSLA_class_1 4446
scalar FogSequentialForward.fog[27].server[0] rho 1
scalar FogSequentialForward.fog[27].server[0] congestionRatio 0
scalar FogSequentialForward.fog[27].server[0] totalJobs 897550
scalar FogSequentialForward.fog[27].server[0] droppedJobsQueue 17
scalar FogSequentialForward.fog[27].server[0] droppedJobsTimout 0
scalar FogSequentialForward.fog[27].server[0] droppedJobsSLA 397047
scalar FogSequentialForward.fog[27].server[0] droppedJobsTotal 397064
scalar FogSequentialForward.fog[28].dispatcher localJobs 897012
scalar FogSequentialForward.fog[28].dispatcher internalJobs 903565
scalar FogSequentialForward.fog[28].dispatcher externalJobs 1339960
scalar FogSequentialForward.fog[28].dispatcher remoteJobs 1342177
scalar FogSequentialForward.fog[28].dispatcher probeQueries 0
scalar FogSequentialForward.fog[28].dispatcher probeAnswers 0
scalar FogSequentialForward.fog[28].dispatcher droppedJobsSLA 4336
scalar FogSequentialForward.fog[28].dispatcher jobs_class_1 2243525
scalar FogSequentialForward.fog[28].dispatcher remoteJobs_class_1 1342177
scalar FogSequentialForward.fog[28].dispatcher localJobs_class_1 897012
scalar FogSequentialForward.fog[28].dispatcher droppedJobsSLA_class_1 4336
scalar FogSequentialForward.fog[28].server[0] rho 0.99999862909317
scalar FogSequentialForward.fog[28].server[0] congestionRatio 0
scalar FogSequentialForward.fog[28].server[0] totalJobs 897012
scalar FogSequentialForward.fog[28].server[0] droppedJobsQueue 17
scalar FogSequentialForward.fog[28].server[0] droppedJobsTimout 0
scalar FogSequentialForward.fog[28].server[0] droppedJobsSLA 396548
scalar FogSequentialForward.fog[28].server[0] droppedJobsTotal 396565
scalar FogSequentialForward.fog[29].dispatcher localJobs 897084
scalar FogSequentialForward.fog[29].dispatcher internalJobs 900882
scalar FogSequentialForward.fog[29].dispatcher externalJobs 1339184
scalar FogSequentialForward.fog[29].dispatcher remoteJobs 1338648
scalar FogSequentialForward.fog[29].dispatcher probeQueries 0
scalar FogSequentialForward.fog[29].dispatcher probeAnswers 0
scalar FogSequentialForward.fog[29].dispatcher droppedJobsSLA 4334
scalar FogSequentialForward.fog[29].dispatcher jobs_class_1 2240066
scalar FogSequentialForward.fog[29].dispatcher remoteJobs_class_1 1338648
scalar FogSequentialForward.fog[29].dispatcher localJobs_class_1 897084
scalar FogSequentialForward.fog[29].dispatcher droppedJobsSLA_class_1 4334
scalar FogSequentialForward.fog[29].server[0] rho 1
scalar FogSequentialForward.fog[29].server[0] congestionRatio 0
scalar FogSequentialForward.fog[29].server[0] totalJobs 897084
scalar FogSequentialForward.fog[29].server[0] droppedJobsQueue 8
scalar FogSequentialForward.fog[29].server[0] droppedJobsTimout 0
scalar FogSequentialForward.fog[29].server[0] droppedJobsSLA 396318
scalar FogSequentialForward.fog[29].server[0] droppedJobsTotal 396326
scalar FogSequentialForward.fog[30].dispatcher localJobs 897282
scalar FogSequentialForward.fog[30].dispatcher internalJobs 901293
scalar FogSequentialForward.fog[30].dispatcher externalJobs 1339429
scalar FogSequentialForward.fog[30].dispatcher remoteJobs 1339033
scalar FogSequentialForward.fog[30].dispatcher probeQueries 0
scalar FogSequentialForward.fog[30].dispatcher probeAnswers 0
scalar FogSequentialForward.fog[30].dispatcher droppedJobsSLA 4407
scalar FogSequentialForward.fog[30].dispatcher jobs_class_1 2240722
scalar FogSequentialForward.fog[30].dispatcher remoteJobs_class_1 1339033
scalar FogSequentialForward.fog[30].dispatcher localJobs_class_1 897282
scalar FogSequentialForward.fog[30].dispatcher droppedJobsSLA_class_1 4407
scalar FogSequentialForward.fog[30].server[0] rho 0.99999785423279
scalar FogSequentialForward.fog[30].server[0] congestionRatio 0
scalar FogSequentialForward.fog[30].server[0] totalJobs 897282
scalar FogSequentialForward.fog[30].server[0] droppedJobsQueue 13
scalar FogSequentialForward.fog[30].server[0] droppedJobsTimout 0
scalar FogSequentialForward.fog[30].server[0] droppedJobsSLA 397029
scalar FogSequentialForward.fog[30].server[0] droppedJobsTotal 397042
scalar FogSequentialForward.fog[31].dispatcher localJobs 897245
scalar FogSequentialForward.fog[31].dispatcher internalJobs 902478
scalar FogSequentialForward.fog[31].dispatcher externalJobs 1340391
scalar FogSequentialForward.fog[31].dispatcher remoteJobs 1341275
scalar FogSequentialForward.fog[31].dispatcher probeQueries 0
scalar FogSequentialForward.fog[31].dispatcher probeAnswers 0
scalar FogSequentialForward.fog[31].dispatcher droppedJobsSLA 4349
scalar FogSequentialForward.fog[31].dispatcher jobs_class_1 2242869
scalar FogSequentialForward.fog[31].dispatcher remoteJobs_class_1 1341275
scalar FogSequentialForward.fog[31].dispatcher localJobs_class_1 897245
scalar FogSequentialForward.fog[31].dispatcher droppedJobsSLA_class_1 4349
scalar FogSequentialForward.fog[31].server[0] rho 0.99999970197678
scalar FogSequentialForward.fog[31].server[0] congestionRatio 0
scalar FogSequentialForward.fog[31].server[0] totalJobs 897245
scalar FogSequentialForward.fog[31].server[0] droppedJobsQueue 23
scalar FogSequentialForward.fog[31].server[0] droppedJobsTimout 0
scalar FogSequentialForward.fog[31].server[0] droppedJobsSLA 397091
scalar FogSequentialForward.fog[31].server[0] droppedJobsTotal 397114
scalar FogSequentialForward.fog[32].dispatcher localJobs 897506
scalar FogSequentialForward.fog[32].dispatcher internalJobs 901917
scalar FogSequentialForward.fog[32].dispatcher externalJobs 1340861
scalar FogSequentialForward.fog[32].dispatcher remoteJobs 1340755
scalar FogSequentialForward.fog[32].dispatcher probeQueries 0
scalar FogSequentialForward.fog[32].dispatcher probeAnswers 0
scalar FogSequentialForward.fog[32].dispatcher droppedJobsSLA 4517
scalar FogSequentialForward.fog[32].dispatcher jobs_class_1 2242778
scalar FogSequentialForward.fog[32].dispatcher remoteJobs_class_1 1340755
scalar FogSequentialForward.fog[32].dispatcher localJobs_class_1 897506
scalar FogSequentialForward.fog[32].dispatcher droppedJobsSLA_class_1 4517
scalar FogSequentialForward.fog[32].server[0] rho 1
scalar FogSequentialForward.fog[32].server[0] congestionRatio 0
scalar FogSequentialForward.fog[32].server[0] totalJobs 897506
scalar FogSequentialForward.fog[32].server[0] droppedJobsQueue 16
scalar FogSequentialForward.fog[32].server[0] droppedJobsTimout 0
scalar FogSequentialForward.fog[32].server[0] droppedJobsSLA 396964
scalar FogSequentialForward.fog[32].server[0] droppedJobsTotal 396980
scalar FogSequentialForward.fog[33].dispatcher localJobs 897826
scalar FogSequentialForward.fog[33].dispatcher internalJobs 902446
scalar FogSequentialForward.fog[33].dispatcher externalJobs 1341537
scalar FogSequentialForward.fog[33].dispatcher remoteJobs 1341805
scalar FogSequentialForward.fog[33].dispatcher probeQueries 0
scalar FogSequentialForward.fog[33].dispatcher probeAnswers 0
scalar FogSequentialForward.fog[33].dispatcher droppedJobsSLA 4352
scalar FogSequentialForward.fog[33].dispatcher jobs_class_1 2243983
scalar FogSequentialForward.fog[33].dispatcher remoteJobs_class_1 1341805
scalar FogSequentialForward.fog[33].dispatcher localJobs_class_1 897826
scalar FogSequentialForward.fog[33].dispatcher droppedJobsSLA_class_1 4352
scalar FogSequentialForward.fog[33].server[0] rho 0.99999994039536
scalar FogSequentialForward.fog[33].server[0] congestionRatio 0
scalar FogSequentialForward.fog[33].server[0] totalJobs 897826
scalar FogSequentialForward.fog[33].server[0] droppedJobsQueue 23
scalar FogSequentialForward.fog[33].server[0] droppedJobsTimout 0
scalar FogSequentialForward.fog[33].server[0] droppedJobsSLA 397017
scalar FogSequentialForward.fog[33].server[0] droppedJobsTotal 397040
scalar FogSequentialForward.fog[34].dispatcher localJobs 897145
scalar FogSequentialForward.fog[34].dispatcher internalJobs 903188
scalar FogSequentialForward.fog[34].dispatcher externalJobs 1338600
scalar FogSequentialForward.fog[34].dispatcher remoteJobs 1340363
scalar FogSequentialForward.fog[34].dispatcher probeQueries 0
scalar FogSequentialForward.fog[34].dispatcher probeAnswers 0
scalar FogSequentialForward.fog[34].dispatcher droppedJobsSLA 4280
scalar FogSequentialForward.fog[34].dispatcher jobs_class_1 2241788
scalar FogSequentialForward.fog[34].dispatcher remoteJobs_class_1 1340363
scalar FogSequentialForward.fog[34].dispatcher localJobs_class_1 897145
scalar FogSequentialForward.fog[34].dispatcher droppedJobsSLA_class_1 4280
scalar FogSequentialForward.fog[34].server[0] rho 0.9999994635582
scalar FogSequentialForward.fog[34].server[0] congestionRatio 0
scalar FogSequentialForward.fog[34].server[0] totalJobs 897145
scalar FogSequentialForward.fog[34].server[0] droppedJobsQueue 13
scalar FogSequentialForward.fog[34].server[0] droppedJobsTimout 0
scalar FogSequentialForward.fog[34].server[0] droppedJobsSLA 396526
scalar FogSequentialForward.fog[34].server[0] droppedJobsTotal 396539
scalar FogSequentialForward.fog[35].dispatcher localJobs 897481
scalar FogSequentialForward.fog[35].dispatcher internalJobs 899923
scalar FogSequentialForward.fog[35].dispatcher externalJobs 1337497
scalar FogSequentialForward.fog[35].dispatcher remoteJobs 1335610
scalar FogSequentialForward.fog[35].dispatcher probeQueries 0
scalar FogSequentialForward.fog[35].dispatcher probeAnswers 0
scalar FogSequentialForward.fog[35].dispatcher droppedJobsSLA 4329
scalar FogSequentialForward.fog[35].dispatcher jobs_class_1 2237420
scalar FogSequentialForward.fog[35].dispatcher remoteJobs_class_1 1335610
scalar FogSequentialForward.fog[35].dispatcher localJobs_class_1 897481
scalar FogSequentialForward.fog[35].dispatcher droppedJobsSLA_class_1 4329
scalar FogSequentialForward.fog[35].server[0] rho 1
scalar FogSequentialForward.fog[35].server[0] congestionRatio 0
scalar FogSequentialForward.fog[35].server[0] totalJobs 897481
scalar FogSequentialForward.fog[35].server[0] droppedJobsQueue 15
scalar FogSequentialForward.fog[35].server[0] droppedJobsTimout 0
scalar FogSequentialForward.fog[35].server[0] droppedJobsSLA 396943
scalar FogSequentialForward.fog[35].server[0] droppedJobsTotal 396958
scalar FogSequentialForward.fog[36].dispatcher localJobs 896887
scalar FogSequentialForward.fog[36].dispatcher internalJobs 899979
scalar FogSequentialForward.fog[36].dispatcher externalJobs 1337497
scalar FogSequentialForward.fog[36].dispatcher remoteJobs 1336137
scalar FogSequentialForward.fog[36].dispatcher probeQueries 0
scalar FogSequentialForward.fog[36].dispatcher probeAnswers 0
scalar FogSequentialForward.fog[36].dispatcher droppedJobsSLA 4452
scalar FogSequentialForward.fog[36].dispatcher jobs_class_1 2237476
scalar FogSequentialForward.fog[36].dispatcher remoteJobs_class_1 1336137
scalar FogSequentialForward.fog[36].dispatcher localJobs_class_1 896887
scalar FogSequentialForward.fog[36].dispatcher droppedJobsSLA_class_1 4452
scalar FogSequentialForward.fog[36].server[0] rho 1
scalar FogSequentialForward.fog[36].server[0] congestionRatio 0
scalar FogSequentialForward.fog[36].server[0] totalJobs 896887
scalar FogSequentialForward.fog[36].server[0] droppedJobsQueue 14
scalar FogSequentialForward.fog[36].server[0] droppedJobsTimout 0
scalar FogSequentialForward.fog[36].server[0] droppedJobsSLA 396260
scalar FogSequentialForward.fog[36].server[0] droppedJobsTotal 396274
scalar FogSequentialForward.fog[37].dispatcher localJobs 897187
scalar FogSequentialForward.fog[37].dispatcher internalJobs 900874
scalar FogSequentialForward.fog[37].dispatcher externalJobs 1339580
scalar FogSequentialForward.fog[37].dispatcher remoteJobs 1338826
scalar FogSequentialForward.fog[37].dispatcher probeQueries 0
scalar FogSequentialForward.fog[37].dispatcher probeAnswers 0
scalar FogSequentialForward.fog[37].dispatcher droppedJobsSLA 4441
scalar FogSequentialForward.fog[37].dispatcher jobs_class_1 2240454
scalar FogSequentialForward.fog[37].dispatcher remoteJobs_class_1 1338826
scalar FogSequentialForward.fog[37].dispatcher localJobs_class_1 897187
scalar FogSequentialForward.fog[37].dispatcher droppedJobsSLA_class_1 4441
scalar FogSequentialForward.fog[37].server[0] rho 1
scalar FogSequentialForward.fog[37].server[0] congestionRatio 0
scalar FogSequentialForward.fog[37].server[0] totalJobs 897187
scalar FogSequentialForward.fog[37].server[0] droppedJobsQueue 12
scalar FogSequentialForward.fog[37].server[0] droppedJobsTimout 0
scalar FogSequentialForward.fog[37].server[0] droppedJobsSLA 396824
scalar FogSequentialForward.fog[37].server[0] droppedJobsTotal 396836
scalar FogSequentialForward.fog[38].dispatcher localJobs 897044
scalar FogSequentialForward.fog[38].dispatcher internalJobs 900814
scalar FogSequentialForward.fog[38].dispatcher externalJobs 1338916
scalar FogSequentialForward.fog[38].dispatcher remoteJobs 1338195
scalar FogSequentialForward.fog[38].dispatcher probeQueries 0
scalar FogSequentialForward.fog[38].dispatcher probeAnswers 0
scalar FogSequentialForward.fog[38].dispatcher droppedJobsSLA 4491
scalar FogSequentialForward.fog[38].dispatcher jobs_class_1 2239730
scalar FogSequentialForward.fog[38].dispatcher remoteJobs_class_1 1338195
scalar FogSequentialForward.fog[38].dispatcher localJobs_class_1 897044
scalar FogSequentialForward.fog[38].dispatcher droppedJobsSLA_class_1 4491
scalar FogSequentialForward.fog[38].server[0] rho 1
scalar FogSequentialForward.fog[38].server[0] congestionRatio 0
scalar FogSequentialForward.fog[38].server[0] totalJobs 897044
scalar FogSequentialForward.fog[38].server[0] droppedJobsQueue 15
scalar FogSequentialForward.fog[38].server[0] droppedJobsTimout 0
scalar FogSequentialForward.fog[38].server[0] droppedJobsSLA 396416
scalar FogSequentialForward.fog[38].server[0] droppedJobsTotal 396431
scalar FogSequentialForward.fog[39].dispatcher localJobs 897725
scalar FogSequentialForward.fog[39].dispatcher internalJobs 903395
scalar FogSequentialForward.fog[39].dispatcher externalJobs 1339594
scalar FogSequentialForward.fog[39].dispatcher remoteJobs 1340885
scalar FogSequentialForward.fog[39].dispatcher probeQueries 0
scalar FogSequentialForward.fog[39].dispatcher probeAnswers 0
scalar FogSequentialForward.fog[39].dispatcher droppedJobsSLA 4379
scalar FogSequentialForward.fog[39].dispatcher jobs_class_1 2242989
scalar FogSequentialForward.fog[39].dispatcher remoteJobs_class_1 1340885
scalar FogSequentialForward.fog[39].dispatcher localJobs_class_1 897725
scalar FogSequentialForward.fog[39].dispatcher droppedJobsSLA_class_1 4379
scalar FogSequentialForward.fog[39].server[0] rho 1
scalar FogSequentialForward.fog[39].server[0] congestionRatio 0
scalar FogSequentialForward.fog[39].server[0] totalJobs 897725
scalar FogSequentialForward.fog[39].server[0] droppedJobsQueue 8
scalar FogSequentialForward.fog[39].server[0] droppedJobsTimout 0
scalar FogSequentialForward.fog[39].server[0] droppedJobsSLA 397451
scalar FogSequentialForward.fog[39].server[0] droppedJobsTotal 397459
scalar FogSequentialForward.fog[40].dispatcher localJobs 897747
scalar FogSequentialForward.fog[40].dispatcher internalJobs 901364
scalar FogSequentialForward.fog[40].dispatcher externalJobs 1341824
scalar FogSequentialForward.fog[40].dispatcher remoteJobs 1341047
scalar FogSequentialForward.fog[40].dispatcher probeQueries 0
scalar FogSequentialForward.fog[40].dispatcher probeAnswers 0
scalar FogSequentialForward.fog[40].dispatcher droppedJobsSLA 4394
scalar FogSequentialForward.fog[40].dispatcher jobs_class_1 2243188
scalar FogSequentialForward.fog[40].dispatcher remoteJobs_class_1 1341047
scalar FogSequentialForward.fog[40].dispatcher localJobs_class_1 897747
scalar FogSequentialForward.fog[40].dispatcher droppedJobsSLA_class_1 4394
scalar FogSequentialForward.fog[40].server[0] rho 1
scalar FogSequentialForward.fog[40].server[0] congestionRatio 0
scalar FogSequentialForward.fog[40].server[0] totalJobs 897747
scalar FogSequentialForward.fog[40].server[0] droppedJobsQueue 16
scalar FogSequentialForward.fog[40].server[0] droppedJobsTimout 0
scalar FogSequentialForward.fog[40].server[0] droppedJobsSLA 397639
scalar FogSequentialForward.fog[40].server[0] droppedJobsTotal 397655
scalar FogSequentialForward.fog[41].dispatcher localJobs 897345
scalar FogSequentialForward.fog[41].dispatcher internalJobs 901753
scalar FogSequentialForward.fog[41].dispatcher externalJobs 1339968
scalar FogSequentialForward.fog[41].dispatcher remoteJobs 1340068
scalar FogSequentialForward.fog[41].dispatcher probeQueries 0
scalar FogSequentialForward.fog[41].dispatcher probeAnswers 0
scalar FogSequentialForward.fog[41].dispatcher droppedJobsSLA 4308
scalar FogSequentialForward.fog[41].dispatcher jobs_class_1 2241721
scalar FogSequentialForward.fog[41].dispatcher remoteJobs_class_1 1340068
scalar FogSequentialForward.fog[41].dispatcher localJobs_class_1 897345
scalar FogSequentialForward.fog[41].dispatcher droppedJobsSLA_class_1 4308
scalar FogSequentialForward.fog[41].server[0] rho 1
scalar FogSequentialForward.fog[41].server[0] congestionRatio 0
scalar FogSequentialForward.fog[41].server[0] totalJobs 897345
scalar FogSequentialForward.fog[41].server[0] droppedJobsQueue 19
scalar FogSequentialForward.fog[41].server[0] droppedJobsTimout 0
scalar FogSequentialForward.fog[41].server[0] droppedJobsSLA 396950
scalar FogSequentialForward.fog[41].server[0] droppedJobsTotal 396969
scalar FogSequentialForward.fog[42].dispatcher localJobs 897824
scalar FogSequentialForward.fog[42].dispatcher internalJobs 903286
scalar FogSequentialForward.fog[42].dispatcher externalJobs 1339522
scalar FogSequentialForward.fog[42].dispatcher remoteJobs 1340544
scalar FogSequentialForward.fog[42].dispatcher probeQueries 0
scalar FogSequentialForward.fog[42].dispatcher probeAnswers 0
scalar FogSequentialForward.fog[42].dispatcher droppedJobsSLA 4440
scalar FogSequentialForward.fog[42].dispatcher jobs_class_1 2242808
scalar FogSequentialForward.fog[42].dispatcher remoteJobs_class_1 1340544
scalar FogSequentialForward.fog[42].dispatcher localJobs_class_1 897824
scalar FogSequentialForward.fog[42].dispatcher droppedJobsSLA_class_1 4440
scalar FogSequentialForward.fog[42].server[0] rho 1
scalar FogSequentialForward.fog[42].server[0] congestionRatio 0
scalar FogSequentialForward.fog[42].server[0] totalJobs 897824
scalar FogSequentialForward.fog[42].server[0] droppedJobsQueue 10
scalar FogSequentialForward.fog[42].server[0] droppedJobsTimout 0
scalar FogSequentialForward.fog[42].server[0] droppedJobsSLA 397613
scalar FogSequentialForward.fog[42].server[0] droppedJobsTotal 397623
scalar FogSequentialForward.fog[43].dispatcher localJobs 897854
scalar FogSequentialForward.fog[43].dispatcher internalJobs 902377
scalar FogSequentialForward.fog[43].dispatcher externalJobs 1340603
scalar FogSequentialForward.fog[43].dispatcher remoteJobs 1340798
scalar FogSequentialForward.fog[43].dispatcher probeQueries 0
scalar FogSequentialForward.fog[43].dispatcher probeAnswers 0
scalar FogSequentialForward.fog[43].dispatcher droppedJobsSLA 4328
scalar FogSequentialForward.fog[43].dispatcher jobs_class_1 2242980
scalar FogSequentialForward.fog[43].dispatcher remoteJobs_class_1 1340798
scalar FogSequentialForward.fog[43].dispatcher localJobs_class_1 897854
scalar FogSequentialForward.fog[43].dispatcher droppedJobsSLA_class_1 4328
scalar FogSequentialForward.fog[43].server[0] rho 1
scalar FogSequentialForward.fog[43].server[0] congestionRatio 0
scalar FogSequentialForward.fog[43].server[0] totalJobs 897854
scalar FogSequentialForward.fog[43].server[0] droppedJobsQueue 17
scalar FogSequentialForward.fog[43].server[0] droppedJobsTimout 0
scalar FogSequentialForward.fog[43].server[0] droppedJobsSLA 397455
scalar FogSequentialForward.fog[43].server[0] droppedJobsTotal 397472
scalar FogSequentialForward.fog[44].dispatcher localJobs 897293
scalar FogSequentialForward.fog[44].dispatcher internalJobs 902784
scalar FogSequentialForward.fog[44].dispatcher externalJobs 1339848
scalar FogSequentialForward.fog[44].dispatcher remoteJobs 1340914
scalar FogSequentialForward.fog[44].dispatcher probeQueries 0
scalar FogSequentialForward.fog[44].dispatcher probeAnswers 0
scalar FogSequentialForward.fog[44].dispatcher droppedJobsSLA 4425
scalar FogSequentialForward.fog[44].dispatcher jobs_class_1 2242632
scalar FogSequentialForward.fog[44].dispatcher remoteJobs_class_1 1340914
scalar FogSequentialForward.fog[44].dispatcher localJobs_class_1 897293
scalar FogSequentialForward.fog[44].dispatcher droppedJobsSLA_class_1 4425
scalar FogSequentialForward.fog[44].server[0] rho 1
scalar FogSequentialForward.fog[44].server[0] congestionRatio 0
scalar FogSequentialForward.fog[44].server[0] totalJobs 897293
scalar FogSequentialForward.fog[44].server[0] droppedJobsQueue 16
scalar FogSequentialForward.fog[44].server[0] droppedJobsTimout 0
scalar FogSequentialForward.fog[44].server[0] droppedJobsSLA 397503
scalar FogSequentialForward.fog[44].server[0] droppedJobsTotal 397519
scalar FogSequentialForward.fog[45].dispatcher localJobs 896704
scalar FogSequentialForward.fog[45].dispatcher internalJobs 901881
scalar FogSequentialForward.fog[45].dispatcher externalJobs 1338506
scalar FogSequentialForward.fog[45].dispatcher remoteJobs 1339290
scalar FogSequentialForward.fog[45].dispatcher probeQueries 0
scalar FogSequentialForward.fog[45].dispatcher probeAnswers 0
scalar FogSequentialForward.fog[45].dispatcher droppedJobsSLA 4393
scalar FogSequentialForward.fog[45].dispatcher jobs_class_1 2240387
scalar FogSequentialForward.fog[45].dispatcher remoteJobs_class_1 1339290
scalar FogSequentialForward.fog[45].dispatcher localJobs_class_1 896704
scalar FogSequentialForward.fog[45].dispatcher droppedJobsSLA_class_1 4393
scalar FogSequentialForward.fog[45].server[0] rho 1
scalar FogSequentialForward.fog[45].server[0] congestionRatio 0
scalar FogSequentialForward.fog[45].server[0] totalJobs 896704
scalar FogSequentialForward.fog[45].server[0] droppedJobsQueue 12
scalar FogSequentialForward.fog[45].server[0] droppedJobsTimout 0
scalar FogSequentialForward.fog[45].server[0] droppedJobsSLA 396595
scalar FogSequentialForward.fog[45].server[0] droppedJobsTotal 396607
scalar FogSequentialForward.fog[46].dispatcher localJobs 897355
scalar FogSequentialForward.fog[46].dispatcher internalJobs 901194
scalar FogSequentialForward.fog[46].dispatcher externalJobs 1338322
scalar FogSequentialForward.fog[46].dispatcher remoteJobs 1337854
scalar FogSequentialForward.fog[46].dispatcher probeQueries 0
scalar FogSequentialForward.fog[46].dispatcher probeAnswers 0
scalar FogSequentialForward.fog[46].dispatcher droppedJobsSLA 4307
scalar FogSequentialForward.fog[46].dispatcher jobs_class_1 2239516
scalar FogSequentialForward.fog[46].dispatcher remoteJobs_class_1 1337854
scalar FogSequentialForward.fog[46].dispatcher localJobs_class_1 897355
scalar FogSequentialForward.fog[46].dispatcher droppedJobsSLA_class_1 4307
scalar FogSequentialForward.fog[46].server[0] rho 1
scalar FogSequentialForward.fog[46].server[0] congestionRatio 0
scalar FogSequentialForward.fog[46].server[0] totalJobs 897355
scalar FogSequentialForward.fog[46].server[0] droppedJobsQueue 22
scalar FogSequentialForward.fog[46].server[0] droppedJobsTimout 0
scalar FogSequentialForward.fog[46].server[0] droppedJobsSLA 396752
scalar FogSequentialForward.fog[46].server[0] droppedJobsTotal 396774
scalar FogSequentialForward.fog[47].dispatcher localJobs 897568
scalar FogSequentialForward.fog[47].dispatcher internalJobs 902052
scalar FogSequentialForward.fog[47].dispatcher externalJobs 1338963
scalar FogSequentialForward.fog[47].dispatcher remoteJobs 1339014
scalar FogSequentialForward.fog[47].dispatcher probeQueries 0
scalar FogSequentialForward.fog[47].dispatcher probeAnswers 0
scalar FogSequentialForward.fog[47].dispatcher droppedJobsSLA 4433
scalar FogSequentialForward.fog[47].dispatcher jobs_class_1 2241015
scalar FogSequentialForward.fog[47].dispatcher remoteJobs_class_1 1339014
scalar FogSequentialForward.fog[47].dispatcher localJobs_class_1 897568
scalar FogSequentialForward.fog[47].dispatcher droppedJobsSLA_class_1 4433
scalar FogSequentialForward.fog[47].server[0] rho 1
scalar FogSequentialForward.fog[47].server[0] congestionRatio 0
scalar FogSequentialForward.fog[47].server[0] totalJobs 897568
scalar FogSequentialForward.fog[47].server[0] droppedJobsQueue 14
scalar FogSequentialForward.fog[47].server[0] droppedJobsTimout 0
scalar FogSequentialForward.fog[47].server[0] droppedJobsSLA 396876
scalar FogSequentialForward.fog[47].server[0] droppedJobsTotal 396890
scalar FogSequentialForward.fog[48].dispatcher localJobs 897096
scalar FogSequentialForward.fog[48].dispatcher internalJobs 901735
scalar FogSequentialForward.fog[48].dispatcher externalJobs 1339704
scalar FogSequentialForward.fog[48].dispatcher remoteJobs 1339922
scalar FogSequentialForward.fog[48].dispatcher probeQueries 0
scalar FogSequentialForward.fog[48].dispatcher probeAnswers 0
scalar FogSequentialForward.fog[48].dispatcher droppedJobsSLA 4421
scalar FogSequentialForward.fog[48].dispatcher jobs_class_1 2241439
scalar FogSequentialForward.fog[48].dispatcher remoteJobs_class_1 1339922
scalar FogSequentialForward.fog[48].dispatcher localJobs_class_1 897096
scalar FogSequentialForward.fog[48].dispatcher droppedJobsSLA_class_1 4421
scalar FogSequentialForward.fog[48].server[0] rho 0.99999928474426
scalar FogSequentialForward.fog[48].server[0] congestionRatio 0
scalar FogSequentialForward.fog[48].server[0] totalJobs 897096
scalar FogSequentialForward.fog[48].server[0] droppedJobsQueue 8
scalar FogSequentialForward.fog[48].server[0] droppedJobsTimout 0
scalar FogSequentialForward.fog[48].server[0] droppedJobsSLA 397011
scalar FogSequentialForward.fog[48].server[0] droppedJobsTotal 397019
scalar FogSequentialForward.fog[49].dispatcher localJobs 897417
scalar FogSequentialForward.fog[49].dispatcher internalJobs 902364
scalar FogSequentialForward.fog[49].dispatcher externalJobs 1339349
scalar FogSequentialForward.fog[49].dispatcher remoteJobs 1339867
scalar FogSequentialForward.fog[49].dispatcher probeQueries 0
scalar FogSequentialForward.fog[49].dispatcher probeAnswers 0
scalar FogSequentialForward.fog[49].dispatcher droppedJobsSLA 4429
scalar FogSequentialForward.fog[49].dispatcher jobs_class_1 2241713
scalar FogSequentialForward.fog[49].dispatcher remoteJobs_class_1 1339867
scalar FogSequentialForward.fog[49].dispatcher localJobs_class_1 897417
scalar FogSequentialForward.fog[49].dispatcher droppedJobsSLA_class_1 4429
scalar FogSequentialForward.fog[49].server[0] rho 1
scalar FogSequentialForward.fog[49].server[0] congestionRatio 0
scalar FogSequentialForward.fog[49].server[0] totalJobs 897417
scalar FogSequentialForward.fog[49].server[0] droppedJobsQueue 19
scalar FogSequentialForward.fog[49].server[0] droppedJobsTimout 0
scalar FogSequentialForward.fog[49].server[0] droppedJobsSLA 396890
scalar FogSequentialForward.fog[49].server[0] droppedJobsTotal 396909
scalar FogSequentialForward.fog[50].dispatcher localJobs 897304
scalar FogSequentialForward.fog[50].dispatcher internalJobs 902628
scalar FogSequentialForward.fog[50].dispatcher externalJobs 1339382
scalar FogSequentialForward.fog[50].dispatcher remoteJobs 1340365
scalar FogSequentialForward.fog[50].dispatcher probeQueries 0
scalar FogSequentialForward.fog[50].dispatcher probeAnswers 0
scalar FogSequentialForward.fog[50].dispatcher droppedJobsSLA 4341
scalar FogSequentialForward.fog[50].dispatcher jobs_class_1 2242010
scalar FogSequentialForward.fog[50].dispatcher remoteJobs_class_1 1340365
scalar FogSequentialForward.fog[50].dispatcher localJobs_class_1 897304
scalar FogSequentialForward.fog[50].dispatcher droppedJobsSLA_class_1 4341
scalar FogSequentialForward.fog[50].server[0] rho 0.99999982118607
scalar FogSequentialForward.fog[50].server[0] congestionRatio 0
scalar FogSequentialForward.fog[50].server[0] totalJobs 897304
scalar FogSequentialForward.fog[50].server[0] droppedJobsQueue 10
scalar FogSequentialForward.fog[50].server[0] droppedJobsTimout 0
scalar FogSequentialForward.fog[50].server[0] droppedJobsSLA 396942
scalar FogSequentialForward.fog[50].server[0] droppedJobsTotal 396952
scalar FogSequentialForward.fog[51].dispatcher localJobs 897289
scalar FogSequentialForward.fog[51].dispatcher internalJobs 900950
scalar FogSequentialForward.fog[51].dispatcher externalJobs 1336996
scalar FogSequentialForward.fog[51].dispatcher remoteJobs 1336243
scalar FogSequentialForward.fog[51].dispatcher probeQueries 0
scalar FogSequentialForward.fog[51].dispatcher probeAnswers 0
scalar FogSequentialForward.fog[51].dispatcher droppedJobsSLA 4414
scalar FogSequentialForward.fog[51].dispatcher jobs_class_1 2237946
scalar FogSequentialForward.fog[51].dispatcher remoteJobs_class_1 1336243
scalar FogSequentialForward.fog[51].dispatcher localJobs_class_1 897289
scalar FogSequentialForward.fog[51].dispatcher droppedJobsSLA_class_1 4414
scalar FogSequentialForward.fog[51].server[0] rho 1
scalar FogSequentialForward.fog[51].server[0] congestionRatio 0
scalar FogSequentialForward.fog[51].server[0] totalJobs 897289
scalar FogSequentialForward.fog[51].server[0] droppedJobsQueue 19
scalar FogSequentialForward.fog[51].server[0] droppedJobsTimout 0
scalar FogSequentialForward.fog[51].server[0] droppedJobsSLA 397264
scalar FogSequentialForward.fog[51].server[0] droppedJobsTotal 397283
scalar FogSequentialForward.fog[52].dispatcher localJobs 896944
scalar FogSequentialForward.fog[52].dispatcher internalJobs 899645
scalar FogSequentialForward.fog[52].dispatcher externalJobs 1338156
scalar FogSequentialForward.fog[52].dispatcher remoteJobs 1336346
scalar FogSequentialForward.fog[52].dispatcher probeQueries 0
scalar FogSequentialForward.fog[52].dispatcher probeAnswers 0
scalar FogSequentialForward.fog[52].dispatcher droppedJobsSLA 4511
scalar FogSequentialForward.fog[52].dispatcher jobs_class_1 2237801
scalar FogSequentialForward.fog[52].dispatcher remoteJobs_class_1 1336346
scalar FogSequentialForward.fog[52].dispatcher localJobs_class_1 896944
scalar FogSequentialForward.fog[52].dispatcher droppedJobsSLA_class_1 4511
scalar FogSequentialForward.fog[52].server[0] rho 1
scalar FogSequentialForward.fog[52].server[0] congestionRatio 0
scalar FogSequentialForward.fog[52].server[0] totalJobs 896944
scalar FogSequentialForward.fog[52].server[0] droppedJobsQueue 16
scalar FogSequentialForward.fog[52].server[0] droppedJobsTimout 0
scalar FogSequentialForward.fog[52].server[0] droppedJobsSLA 397290
scalar FogSequentialForward.fog[52].server[0] droppedJobsTotal 397306
scalar FogSequentialForward.fog[53].dispatcher localJobs 897735
scalar FogSequentialForward.fog[53].dispatcher internalJobs 902663
scalar FogSequentialForward.fog[53].dispatcher externalJobs 1339093
scalar FogSequentialForward.fog[53].dispatcher remoteJobs 1339672
scalar FogSequentialForward.fog[53].dispatcher probeQueries 0
scalar FogSequentialForward.fog[53].dispatcher probeAnswers 0
scalar FogSequentialForward.fog[53].dispatcher droppedJobsSLA 4349
scalar FogSequentialForward.fog[53].dispatcher jobs_class_1 2241756
scalar FogSequentialForward.fog[53].dispatcher remoteJobs_class_1 1339672
scalar FogSequentialForward.fog[53].dispatcher localJobs_class_1 897735
scalar FogSequentialForward.fog[53].dispatcher droppedJobsSLA_class_1 4349
scalar FogSequentialForward.fog[53].server[0] rho 1
scalar FogSequentialForward.fog[53].server[0] congestionRatio 0
scalar FogSequentialForward.fog[53].server[0] totalJobs 897735
scalar FogSequentialForward.fog[53].server[0] droppedJobsQueue 18
scalar FogSequentialForward.fog[53].server[0] droppedJobsTimout 0
scalar FogSequentialForward.fog[53].server[0] droppedJobsSLA 396963
scalar FogSequentialForward.fog[53].server[0] droppedJobsTotal 396981
scalar FogSequentialForward.fog[54].dispatcher localJobs 896967
scalar FogSequentialForward.fog[54].dispatcher internalJobs 901048
scalar FogSequentialForward.fog[54].dispatcher externalJobs 1339159
scalar FogSequentialForward.fog[54].dispatcher remoteJobs 1338877
scalar FogSequentialForward.fog[54].dispatcher probeQueries 0
scalar FogSequentialForward.fog[54].dispatcher probeAnswers 0
scalar FogSequentialForward.fog[54].dispatcher droppedJobsSLA 4363
scalar FogSequentialForward.fog[54].dispatcher jobs_class_1 2240207
scalar FogSequentialForward.fog[54].dispatcher remoteJobs_class_1 1338877
scalar FogSequentialForward.fog[54].dispatcher localJobs_class_1 896967
scalar FogSequentialForward.fog[54].dispatcher droppedJobsSLA_class_1 4363
scalar FogSequentialForward.fog[54].server[0] rho 0.99999994039536
scalar FogSequentialForward.fog[54].server[0] congestionRatio 0
scalar FogSequentialForward.fog[54].server[0] totalJobs 896967
scalar FogSequentialForward.fog[54].server[0] droppedJobsQueue 20
scalar FogSequentialForward.fog[54].server[0] droppedJobsTimout 0
scalar FogSequentialForward.fog[54].server[0] droppedJobsSLA 397354
scalar FogSequentialForward.fog[54].server[0] droppedJobsTotal 397374
scalar FogSequentialForward.fog[55].dispatcher localJobs 897093
scalar FogSequentialForward.fog[55].dispatcher internalJobs 900940
scalar FogSequentialForward.fog[55].dispatcher externalJobs 1337953
scalar FogSequentialForward.fog[55].dispatcher remoteJobs 1337308
scalar FogSequentialForward.fog[55].dispatcher probeQueries 0
scalar FogSequentialForward.fog[55].dispatcher probeAnswers 0
scalar FogSequentialForward.fog[55].dispatcher droppedJobsSLA 4492
scalar FogSequentialForward.fog[55].dispatcher jobs_class_1 2238893
scalar FogSequentialForward.fog[55].dispatcher remoteJobs_class_1 1337308
scalar FogSequentialForward.fog[55].dispatcher localJobs_class_1 897093
scalar FogSequentialForward.fog[55].dispatcher droppedJobsSLA_class_1 4492
scalar FogSequentialForward.fog[55].server[0] rho 0.99999850988388
scalar FogSequentialForward.fog[55].server[0] congestionRatio 0
scalar FogSequentialForward.fog[55].server[0] totalJobs 897093
scalar FogSequentialForward.fog[55].server[0] droppedJobsQueue 16
scalar FogSequentialForward.fog[55].server[0] droppedJobsTimout 0
scalar FogSequentialForward.fog[55].server[0] droppedJobsSLA 396537
scalar FogSequentialForward.fog[55].server[0] droppedJobsTotal 396553
scalar FogSequentialForward.fog[56].dispatcher localJobs 897881
scalar FogSequentialForward.fog[56].dispatcher internalJobs 901949
scalar FogSequentialForward.fog[56].dispatcher externalJobs 1340025
scalar FogSequentialForward.fog[56].dispatcher remoteJobs 1339711
scalar FogSequentialForward.fog[56].dispatcher probeQueries 0
scalar FogSequentialForward.fog[56].dispatcher probeAnswers 0
scalar FogSequentialForward.fog[56].dispatcher droppedJobsSLA 4382
scalar FogSequentialForward.fog[56].dispatcher jobs_class_1 2241974
scalar FogSequentialForward.fog[56].dispatcher remoteJobs_class_1 1339711
scalar FogSequentialForward.fog[56].dispatcher localJobs_class_1 897881
scalar FogSequentialForward.fog[56].dispatcher droppedJobsSLA_class_1 4382
scalar FogSequentialForward.fog[56].server[0] rho 1
scalar FogSequentialForward.fog[56].server[0] congestionRatio 0
scalar FogSequentialForward.fog[56].server[0] totalJobs 897881
scalar FogSequentialForward.fog[56].server[0] droppedJobsQueue 22
scalar FogSequentialForward.fog[56].server[0] droppedJobsTimout 0
scalar FogSequentialForward.fog[56].server[0] droppedJobsSLA 397907
scalar FogSequentialForward.fog[56].server[0] droppedJobsTotal 397929
scalar FogSequentialForward.fog[57].dispatcher localJobs 897200
scalar FogSequentialForward.fog[57].dispatcher internalJobs 901250
scalar FogSequentialForward.fog[57].dispatcher externalJobs 1339054
scalar FogSequentialForward.fog[57].dispatcher remoteJobs 1338812
scalar FogSequentialForward.fog[57].dispatcher probeQueries 0
scalar FogSequentialForward.fog[57].dispatcher probeAnswers 0
scalar FogSequentialForward.fog[57].dispatcher droppedJobsSLA 4292
scalar FogSequentialForward.fog[57].dispatcher jobs_class_1 2240304
scalar FogSequentialForward.fog[57].dispatcher remoteJobs_class_1 1338812
scalar FogSequentialForward.fog[57].dispatcher localJobs_class_1 897200
scalar FogSequentialForward.fog[57].dispatcher droppedJobsSLA_class_1 4292
scalar FogSequentialForward.fog[57].server[0] rho 1
scalar FogSequentialForward.fog[57].server[0] congestionRatio 0
scalar FogSequentialForward.fog[57].server[0] totalJobs 897200
scalar FogSequentialForward.fog[57].server[0] droppedJobsQueue 15
scalar FogSequentialForward.fog[57].server[0] droppedJobsTimout 0
scalar FogSequentialForward.fog[57].server[0] droppedJobsSLA 396651
scalar FogSequentialForward.fog[57].server[0] droppedJobsTotal 396666
scalar FogSequentialForward.fog[58].dispatcher localJobs 897232
scalar FogSequentialForward.fog[58].dispatcher internalJobs 899083
scalar FogSequentialForward.fog[58].dispatcher externalJobs 1338165
scalar FogSequentialForward.fog[58].dispatcher remoteJobs 1335603
scalar FogSequentialForward.fog[58].dispatcher probeQueries 0
scalar FogSequentialForward.fog[58].dispatcher probeAnswers 0
scalar FogSequentialForward.fog[58].dispatcher droppedJobsSLA 4413
scalar FogSequentialForward.fog[58].dispatcher jobs_class_1 2237248
scalar FogSequentialForward.fog[58].dispatcher remoteJobs_class_1 1335603
scalar FogSequentialForward.fog[58].dispatcher localJobs_class_1 897232
scalar FogSequentialForward.fog[58].dispatcher droppedJobsSLA_class_1 4413
scalar FogSequentialForward.fog[58].server[0] rho 0.99999862909317
scalar FogSequentialForward.fog[58].server[0] congestionRatio 0
scalar FogSequentialForward.fog[58].server[0] totalJobs 897232
scalar FogSequentialForward.fog[58].server[0] droppedJobsQueue 13
scalar FogSequentialForward.fog[58].server[0] droppedJobsTimout 0
scalar FogSequentialForward.fog[58].server[0] droppedJobsSLA 397038
scalar FogSequentialForward.fog[58].server[0] droppedJobsTotal 397051
scalar FogSequentialForward.fog[59].dispatcher localJobs 897964
scalar FogSequentialForward.fog[59].dispatcher internalJobs 902971
scalar FogSequentialForward.fog[59].dispatcher externalJobs 1340393
scalar FogSequentialForward.fog[59].dispatcher remoteJobs 1341079
scalar FogSequentialForward.fog[59].dispatcher probeQueries 0
scalar FogSequentialForward.fog[59].dispatcher probeAnswers 0
scalar FogSequentialForward.fog[59].dispatcher droppedJobsSLA 4321
scalar FogSequentialForward.fog[59].dispatcher jobs_class_1 2243364
scalar FogSequentialForward.fog[59].dispatcher remoteJobs_class_1 1341079
scalar FogSequentialForward.fog[59].dispatcher localJobs_class_1 897964
scalar FogSequentialForward.fog[59].dispatcher droppedJobsSLA_class_1 4321
scalar FogSequentialForward.fog[59].server[0] rho 1
scalar FogSequentialForward.fog[59].server[0] congestionRatio 0
scalar FogSequentialForward.fog[59].server[0] totalJobs 897964
scalar FogSequentialForward.fog[59].server[0] droppedJobsQueue 10
scalar FogSequentialForward.fog[59].server[0] droppedJobsTimout 0
scalar FogSequentialForward.fog[59].server[0] droppedJobsSLA 397113
scalar FogSequentialForward.fog[59].server[0] droppedJobsTotal 397123
scalar FogSequentialForward.fog[60].dispatcher localJobs 897375
scalar FogSequentialForward.fog[60].dispatcher internalJobs 901980
scalar FogSequentialForward.fog[60].dispatcher externalJobs 1340706
scalar FogSequentialForward.fog[60].dispatcher remoteJobs 1340849
scalar FogSequentialForward.fog[60].dispatcher probeQueries 0
scalar FogSequentialForward.fog[60].dispatcher probeAnswers 0
scalar FogSequentialForward.fog[60].dispatcher droppedJobsSLA 4462
scalar FogSequentialForward.fog[60].dispatcher jobs_class_1 2242686
scalar FogSequentialForward.fog[60].dispatcher remoteJobs_class_1 1340849
scalar FogSequentialForward.fog[60].dispatcher localJobs_class_1 897375
scalar FogSequentialForward.fog[60].dispatcher droppedJobsSLA_class_1 4462
scalar FogSequentialForward.fog[60].server[0] rho 0.99999272823334
scalar FogSequentialForward.fog[60].server[0] congestionRatio 0
scalar FogSequentialForward.fog[60].server[0] totalJobs 897375
scalar FogSequentialForward.fog[60].server[0] droppedJobsQueue 16
scalar FogSequentialForward.fog[60].server[0] droppedJobsTimout 0
scalar FogSequentialForward.fog[60].server[0] droppedJobsSLA 397156
scalar FogSequentialForward.fog[60].server[0] droppedJobsTotal 397172
scalar FogSequentialForward.fog[61].dispatcher localJobs 897113
scalar FogSequentialForward.fog[61].dispatcher internalJobs 902988
scalar FogSequentialForward.fog[61].dispatcher externalJobs 1336974
scalar FogSequentialForward.fog[61].dispatcher remoteJobs 1338371
scalar FogSequentialForward.fog[61].dispatcher probeQueries 0
scalar FogSequentialForward.fog[61].dispatcher probeAnswers 0
scalar FogSequentialForward.fog[61].dispatcher droppedJobsSLA 4478
scalar FogSequentialForward.fog[61].dispatcher jobs_class_1 2239962
scalar FogSequentialForward.fog[61].dispatcher remoteJobs_class_1 1338371
scalar FogSequentialForward.fog[61].dispatcher localJobs_class_1 897113
scalar FogSequentialForward.fog[61].dispatcher droppedJobsSLA_class_1 4478
scalar FogSequentialForward.fog[61].server[0] rho 0.99999970197678
scalar FogSequentialForward.fog[61].server[0] congestionRatio 0
scalar FogSequentialForward.fog[61].server[0] totalJobs 897113
scalar FogSequentialForward.fog[61].server[0] droppedJobsQueue 12
scalar FogSequentialForward.fog[61].server[0] droppedJobsTimout 0
scalar FogSequentialForward.fog[61].server[0] droppedJobsSLA 396164
scalar FogSequentialForward.fog[61].server[0] droppedJobsTotal 396176
scalar FogSequentialForward.fog[62].dispatcher localJobs 897722
scalar FogSequentialForward.fog[62].dispatcher internalJobs 901094
scalar FogSequentialForward.fog[62].dispatcher externalJobs 1341095
scalar FogSequentialForward.fog[62].dispatcher remoteJobs 1340169
scalar FogSequentialForward.fog[62].dispatcher probeQueries 0
scalar FogSequentialForward.fog[62].dispatcher probeAnswers 0
scalar FogSequentialForward.fog[62].dispatcher droppedJobsSLA 4298
scalar FogSequentialForward.fog[62].dispatcher jobs_class_1 2242189
scalar FogSequentialForward.fog[62].dispatcher remoteJobs_class_1 1340169
scalar FogSequentialForward.fog[62].dispatcher localJobs_class_1 897722
scalar FogSequentialForward.fog[62].dispatcher droppedJobsSLA_class_1 4298
scalar FogSequentialForward.fog[62].server[0] rho 0.99999713897705
scalar FogSequentialForward.fog[62].server[0] congestionRatio 0
scalar FogSequentialForward.fog[62].server[0] totalJobs 897722
scalar FogSequentialForward.fog[62].server[0] droppedJobsQueue 16
scalar FogSequentialForward.fog[62].server[0] droppedJobsTimout 0
scalar FogSequentialForward.fog[62].server[0] droppedJobsSLA 397131
scalar FogSequentialForward.fog[62].server[0] droppedJobsTotal 397147
scalar FogSequentialForward.fog[63].dispatcher localJobs 897682
scalar FogSequentialForward.fog[63].dispatcher internalJobs 901614
scalar FogSequentialForward.fog[63].dispatcher externalJobs 1340096
scalar FogSequentialForward.fog[63].dispatcher remoteJobs 1339615
scalar FogSequentialForward.fog[63].dispatcher probeQueries 0
scalar FogSequentialForward.fog[63].dispatcher probeAnswers 0
scalar FogSequentialForward.fog[63].dispatcher droppedJobsSLA 4413
scalar FogSequentialForward.fog[63].dispatcher jobs_class_1 2241710
scalar FogSequentialForward.fog[63].dispatcher remoteJobs_class_1 1339615
scalar FogSequentialForward.fog[63].dispatcher localJobs_class_1 897682
scalar FogSequentialForward.fog[63].dispatcher droppedJobsSLA_class_1 4413
scalar FogSequentialForward.fog[63].server[0] rho 0.9999965429306
scalar FogSequentialForward.fog[63].server[0] congestionRatio 0
scalar FogSequentialForward.fog[63].server[0] totalJobs 897682
scalar FogSequentialForward.fog[63].server[0] droppedJobsQueue 14
scalar FogSequentialForward.fog[63].server[0] droppedJobsTimout 0
scalar FogSequentialForward.fog[63].server[0] droppedJobsSLA 397637
scalar FogSequentialForward.fog[63].server[0] droppedJobsTotal 397651
scalar FogSequentialForward.fog[64].dispatcher localJobs 897178
scalar FogSequentialForward.fog[64].dispatcher internalJobs 901624
scalar FogSequentialForward.fog[64].dispatcher externalJobs 1340218
scalar FogSequentialForward.fog[64].dispatcher remoteJobs 1340381
scalar FogSequentialForward.fog[64].dispatcher probeQueries 0
scalar FogSequentialForward.fog[64].dispatcher probeAnswers 0
scalar FogSequentialForward.fog[64].dispatcher droppedJobsSLA 4283
scalar FogSequentialForward.fog[64].dispatcher jobs_class_1 2241842
scalar FogSequentialForward.fog[64].dispatcher remoteJobs_class_1 1340381
scalar FogSequentialForward.fog[64].dispatcher localJobs_class_1 897178
scalar FogSequentialForward.fog[64].dispatcher droppedJobsSLA_class_1 4283
scalar FogSequentialForward.fog[64].server[0] rho 1
scalar FogSequentialForward.fog[64].server[0] congestionRatio 0
scalar FogSequentialForward.fog[64].server[0] totalJobs 897178
scalar FogSequentialForward.fog[64].server[0] droppedJobsQueue 22
scalar FogSequentialForward.fog[64].server[0] droppedJobsTimout 0
scalar FogSequentialForward.fog[64].server[0] droppedJobsSLA 396986
scalar FogSequentialForward.fog[64].server[0] droppedJobsTotal 397008
scalar FogSequentialForward.fog[65].dispatcher localJobs 897315
scalar FogSequentialForward.fog[65].dispatcher internalJobs 901799
scalar FogSequentialForward.fog[65].dispatcher externalJobs 1338230
scalar FogSequentialForward.fog[65].dispatcher remoteJobs 1338281
scalar FogSequentialForward.fog[65].dispatcher probeQueries 0
scalar FogSequentialForward.fog[65].dispatcher probeAnswers 0
scalar FogSequentialForward.fog[65].dispatcher droppedJobsSLA 4433
scalar FogSequentialForward.fog[65].dispatcher jobs_class_1 2240029
scalar FogSequentialForward.fog[65].dispatcher remoteJobs_class_1 1338281
scalar FogSequentialForward.fog[65].dispatcher localJobs_class_1 897315
scalar FogSequentialForward.fog[65].dispatcher droppedJobsSLA_class_1 4433
scalar FogSequentialForward.fog[65].server[0] rho 1
scalar FogSequentialForward.fog[65].server[0] congestionRatio 0
scalar FogSequentialForward.fog[65].server[0] totalJobs 897315
[...]
scalar FogSequentialForward.fog[84].dispatcher probeAnswers 0
scalar FogSequentialForward.fog[84].dispatcher droppedJobsSLA 4379
scalar FogSequentialForward.fog[84].dispatcher jobs_class_1 2239745
scalar FogSequentialForward.fog[84].dispatcher remoteJobs_class_1 1337763
scalar FogSequentialForward.fog[84].dispatcher localJobs_class_1 897603
scalar FogSequentialForward.fog[84].dispatcher droppedJobsSLA_class_1 4379
scalar FogSequentialForward.fog[84].server[0] rho 1
scalar FogSequentialForward.fog[84].server[0] congestionRatio 0
scalar FogSequentialForward.fog[84].server[0] totalJobs 897603
scalar FogSequentialForward.fog[84].server[0] droppedJobsQueue 17
scalar FogSequentialForward.fog[84].server[0] droppedJobsTimout 0
scalar FogSequentialForward.fog[84].server[0] droppedJobsSLA 397104
scalar FogSequentialForward.fog[84].server[0] droppedJobsTotal 397121
scalar FogSequentialForward.fog[85].dispatcher localJobs 897972
scalar FogSequentialForward.fog[85].dispatcher internalJobs 900371
scalar FogSequentialForward.fog[85].dispatcher externalJobs 1339113
scalar FogSequentialForward.fog[85].dispatcher remoteJobs 1337139
scalar FogSequentialForward.fog[85].dispatcher probeQueries 0
scalar FogSequentialForward.fog[85].dispatcher probeAnswers 0
scalar FogSequentialForward.fog[85].dispatcher droppedJobsSLA 4373
scalar FogSequentialForward.fog[85].dispatcher jobs_class_1 2239484
scalar FogSequentialForward.fog[85].dispatcher remoteJobs_class_1 1337139
scalar FogSequentialForward.fog[85].dispatcher localJobs_class_1 897972
scalar FogSequentialForward.fog[85].dispatcher droppedJobsSLA_class_1 4373
scalar FogSequentialForward.fog[85].server[0] rho 1
scalar FogSequentialForward.fog[85].server[0] congestionRatio 0
scalar FogSequentialForward.fog[85].server[0] totalJobs 897972
scalar FogSequentialForward.fog[85].server[0] droppedJobsQueue 16
scalar FogSequentialForward.fog[85].server[0] droppedJobsTimout 0
scalar FogSequentialForward.fog[85].server[0] droppedJobsSLA 397787
scalar FogSequentialForward.fog[85].server[0] droppedJobsTotal 397803
scalar FogSequentialForward.fog[86].dispatcher localJobs 897188
scalar FogSequentialForward.fog[86].dispatcher internalJobs 904008
scalar FogSequentialForward.fog[86].dispatcher externalJobs 1340105
scalar FogSequentialForward.fog[86].dispatcher remoteJobs 1342605
scalar FogSequentialForward.fog[86].dispatcher probeQueries 0
scalar FogSequentialForward.fog[86].dispatcher probeAnswers 0
scalar FogSequentialForward.fog[86].dispatcher droppedJobsSLA 4320
scalar FogSequentialForward.fog[86].dispatcher jobs_class_1 2244113
scalar FogSequentialForward.fog[86].dispatcher remoteJobs_class_1 1342605
scalar FogSequentialForward.fog[86].dispatcher localJobs_class_1 897188
scalar FogSequentialForward.fog[86].dispatcher droppedJobsSLA_class_1 4320
scalar FogSequentialForward.fog[86].server[0] rho 0.99999988079071
scalar FogSequentialForward.fog[86].server[0] congestionRatio 0
scalar FogSequentialForward.fog[86].server[0] totalJobs 897188
scalar FogSequentialForward.fog[86].server[0] droppedJobsQueue 22
scalar FogSequentialForward.fog[86].server[0] droppedJobsTimout 0
scalar FogSequentialForward.fog[86].server[0] droppedJobsSLA 397755
scalar FogSequentialForward.fog[86].server[0] droppedJobsTotal 397777
scalar FogSequentialForward.fog[87].dispatcher localJobs 897280
scalar FogSequentialForward.fog[87].dispatcher internalJobs 902908
scalar FogSequentialForward.fog[87].dispatcher externalJobs 1338452
scalar FogSequentialForward.fog[87].dispatcher remoteJobs 1339699
scalar FogSequentialForward.fog[87].dispatcher probeQueries 0
scalar FogSequentialForward.fog[87].dispatcher probeAnswers 0
scalar FogSequentialForward.fog[87].dispatcher droppedJobsSLA 4381
scalar FogSequentialForward.fog[87].dispatcher jobs_class_1 2241360
scalar FogSequentialForward.fog[87].dispatcher remoteJobs_class_1 1339699
scalar FogSequentialForward.fog[87].dispatcher localJobs_class_1 897280
scalar FogSequentialForward.fog[87].dispatcher droppedJobsSLA_class_1 4381
scalar FogSequentialForward.fog[87].server[0] rho 1
scalar FogSequentialForward.fog[87].server[0] congestionRatio 0
scalar FogSequentialForward.fog[87].server[0] totalJobs 897280
scalar FogSequentialForward.fog[87].server[0] droppedJobsQueue 15
scalar FogSequentialForward.fog[87].server[0] droppedJobsTimout 0
scalar FogSequentialForward.fog[87].server[0] droppedJobsSLA 397035
scalar FogSequentialForward.fog[87].server[0] droppedJobsTotal 397050
scalar FogSequentialForward.fog[88].dispatcher localJobs 897411
scalar FogSequentialForward.fog[88].dispatcher internalJobs 900605
scalar FogSequentialForward.fog[88].dispatcher externalJobs 1339540
scalar FogSequentialForward.fog[88].dispatcher remoteJobs 1338284
scalar FogSequentialForward.fog[88].dispatcher probeQueries 0
scalar FogSequentialForward.fog[88].dispatcher probeAnswers 0
scalar FogSequentialForward.fog[88].dispatcher droppedJobsSLA 4450
scalar FogSequentialForward.fog[88].dispatcher jobs_class_1 2240145
scalar FogSequentialForward.fog[88].dispatcher remoteJobs_class_1 1338284
scalar FogSequentialForward.fog[88].dispatcher localJobs_class_1 897411
scalar FogSequentialForward.fog[88].dispatcher droppedJobsSLA_class_1 4450
scalar FogSequentialForward.fog[88].server[0] rho 0.99999684095383
scalar FogSequentialForward.fog[88].server[0] congestionRatio 0
scalar FogSequentialForward.fog[88].server[0] totalJobs 897411
scalar FogSequentialForward.fog[88].server[0] droppedJobsQueue 17
scalar FogSequentialForward.fog[88].server[0] droppedJobsTimout 0
scalar FogSequentialForward.fog[88].server[0] droppedJobsSLA 397667
scalar FogSequentialForward.fog[88].server[0] droppedJobsTotal 397684
scalar FogSequentialForward.fog[89].dispatcher localJobs 897347
scalar FogSequentialForward.fog[89].dispatcher internalJobs 901548
scalar FogSequentialForward.fog[89].dispatcher externalJobs 1339456
scalar FogSequentialForward.fog[89].dispatcher remoteJobs 1339308
scalar FogSequentialForward.fog[89].dispatcher probeQueries 0
scalar FogSequentialForward.fog[89].dispatcher probeAnswers 0
scalar FogSequentialForward.fog[89].dispatcher droppedJobsSLA 4349
scalar FogSequentialForward.fog[89].dispatcher jobs_class_1 2241004
scalar FogSequentialForward.fog[89].dispatcher remoteJobs_class_1 1339308
scalar FogSequentialForward.fog[89].dispatcher localJobs_class_1 897347
scalar FogSequentialForward.fog[89].dispatcher droppedJobsSLA_class_1 4349
scalar FogSequentialForward.fog[89].server[0] rho 0.99999636411667
scalar FogSequentialForward.fog[89].server[0] congestionRatio 0
scalar FogSequentialForward.fog[89].server[0] totalJobs 897347
scalar FogSequentialForward.fog[89].server[0] droppedJobsQueue 15
scalar FogSequentialForward.fog[89].server[0] droppedJobsTimout 0
scalar FogSequentialForward.fog[89].server[0] droppedJobsSLA 396723
scalar FogSequentialForward.fog[89].server[0] droppedJobsTotal 396738
scalar FogSequentialForward.fog[90].dispatcher localJobs 897148
scalar FogSequentialForward.fog[90].dispatcher internalJobs 904038
scalar FogSequentialForward.fog[90].dispatcher externalJobs 1337886
scalar FogSequentialForward.fog[90].dispatcher remoteJobs 1340402
scalar FogSequentialForward.fog[90].dispatcher probeQueries 0
scalar FogSequentialForward.fog[90].dispatcher probeAnswers 0
scalar FogSequentialForward.fog[90].dispatcher droppedJobsSLA 4374
scalar FogSequentialForward.fog[90].dispatcher jobs_class_1 2241924
scalar FogSequentialForward.fog[90].dispatcher remoteJobs_class_1 1340402
scalar FogSequentialForward.fog[90].dispatcher localJobs_class_1 897148
scalar FogSequentialForward.fog[90].dispatcher droppedJobsSLA_class_1 4374
scalar FogSequentialForward.fog[90].server[0] rho 1
scalar FogSequentialForward.fog[90].server[0] congestionRatio 0
scalar FogSequentialForward.fog[90].server[0] totalJobs 897148
scalar FogSequentialForward.fog[90].server[0] droppedJobsQueue 21
scalar FogSequentialForward.fog[90].server[0] droppedJobsTimout 0
scalar FogSequentialForward.fog[90].server[0] droppedJobsSLA 396284
scalar FogSequentialForward.fog[90].server[0] droppedJobsTotal 396305
scalar FogSequentialForward.fog[91].dispatcher localJobs 897310
scalar FogSequentialForward.fog[91].dispatcher internalJobs 902318
scalar FogSequentialForward.fog[91].dispatcher externalJobs 1337283
scalar FogSequentialForward.fog[91].dispatcher remoteJobs 1337901
scalar FogSequentialForward.fog[91].dispatcher probeQueries 0
scalar FogSequentialForward.fog[91].dispatcher probeAnswers 0
scalar FogSequentialForward.fog[91].dispatcher droppedJobsSLA 4390
scalar FogSequentialForward.fog[91].dispatcher jobs_class_1 2239601
scalar FogSequentialForward.fog[91].dispatcher remoteJobs_class_1 1337901
scalar FogSequentialForward.fog[91].dispatcher localJobs_class_1 897310
scalar FogSequentialForward.fog[91].dispatcher droppedJobsSLA_class_1 4390
scalar FogSequentialForward.fog[91].server[0] rho 0.99999845027924
scalar FogSequentialForward.fog[91].server[0] congestionRatio 0
scalar FogSequentialForward.fog[91].server[0] totalJobs 897310
scalar FogSequentialForward.fog[91].server[0] droppedJobsQueue 13
scalar FogSequentialForward.fog[91].server[0] droppedJobsTimout 0
scalar FogSequentialForward.fog[91].server[0] droppedJobsSLA 396800
scalar FogSequentialForward.fog[91].server[0] droppedJobsTotal 396813
scalar FogSequentialForward.fog[92].dispatcher localJobs 897525
scalar FogSequentialForward.fog[92].dispatcher internalJobs 901646
scalar FogSequentialForward.fog[92].dispatcher externalJobs 1338627
scalar FogSequentialForward.fog[92].dispatcher remoteJobs 1338336
scalar FogSequentialForward.fog[92].dispatcher probeQueries 0
scalar FogSequentialForward.fog[92].dispatcher probeAnswers 0
scalar FogSequentialForward.fog[92].dispatcher droppedJobsSLA 4412
scalar FogSequentialForward.fog[92].dispatcher jobs_class_1 2240273
scalar FogSequentialForward.fog[92].dispatcher remoteJobs_class_1 1338336
scalar FogSequentialForward.fog[92].dispatcher localJobs_class_1 897525
scalar FogSequentialForward.fog[92].dispatcher droppedJobsSLA_class_1 4412
scalar FogSequentialForward.fog[92].server[0] rho 1
scalar FogSequentialForward.fog[92].server[0] congestionRatio 0
scalar FogSequentialForward.fog[92].server[0] totalJobs 897525
scalar FogSequentialForward.fog[92].server[0] droppedJobsQueue 15
scalar FogSequentialForward.fog[92].server[0] droppedJobsTimout 0
scalar FogSequentialForward.fog[92].server[0] droppedJobsSLA 396692
scalar FogSequentialForward.fog[92].server[0] droppedJobsTotal 396707
scalar FogSequentialForward.fog[93].dispatcher localJobs 897279
scalar FogSequentialForward.fog[93].dispatcher internalJobs 901412
scalar FogSequentialForward.fog[93].dispatcher externalJobs 1338189
scalar FogSequentialForward.fog[93].dispatcher remoteJobs 1337873
scalar FogSequentialForward.fog[93].dispatcher probeQueries 0
scalar FogSequentialForward.fog[93].dispatcher probeAnswers 0
scalar FogSequentialForward.fog[93].dispatcher droppedJobsSLA 4449
scalar FogSequentialForward.fog[93].dispatcher jobs_class_1 2239601
scalar FogSequentialForward.fog[93].dispatcher remoteJobs_class_1 1337873
scalar FogSequentialForward.fog[93].dispatcher localJobs_class_1 897279
scalar FogSequentialForward.fog[93].dispatcher droppedJobsSLA_class_1 4449
scalar FogSequentialForward.fog[93].server[0] rho 1
scalar FogSequentialForward.fog[93].server[0] congestionRatio 0
scalar FogSequentialForward.fog[93].server[0] totalJobs 897279
scalar FogSequentialForward.fog[93].server[0] droppedJobsQueue 15
scalar FogSequentialForward.fog[93].server[0] droppedJobsTimout 0
scalar FogSequentialForward.fog[93].server[0] droppedJobsSLA 396652
scalar FogSequentialForward.fog[93].server[0] droppedJobsTotal 396667
scalar FogSequentialForward.fog[94].dispatcher localJobs 897324
scalar FogSequentialForward.fog[94].dispatcher internalJobs 901390
scalar FogSequentialForward.fog[94].dispatcher externalJobs 1338611
scalar FogSequentialForward.fog[94].dispatcher remoteJobs 1338228
scalar FogSequentialForward.fog[94].dispatcher probeQueries 0
scalar FogSequentialForward.fog[94].dispatcher probeAnswers 0
scalar FogSequentialForward.fog[94].dispatcher droppedJobsSLA 4449
scalar FogSequentialForward.fog[94].dispatcher jobs_class_1 2240001
scalar FogSequentialForward.fog[94].dispatcher remoteJobs_class_1 1338228
scalar FogSequentialForward.fog[94].dispatcher localJobs_class_1 897324
scalar FogSequentialForward.fog[94].dispatcher droppedJobsSLA_class_1 4449
scalar FogSequentialForward.fog[94].server[0] rho 1
scalar FogSequentialForward.fog[94].server[0] congestionRatio 0
scalar FogSequentialForward.fog[94].server[0] totalJobs 897324
scalar FogSequentialForward.fog[94].server[0] droppedJobsQueue 12
scalar FogSequentialForward.fog[94].server[0] droppedJobsTimout 0
scalar FogSequentialForward.fog[94].server[0] droppedJobsSLA 397193
scalar FogSequentialForward.fog[94].server[0] droppedJobsTotal 397205
scalar FogSequentialForward.fog[95].dispatcher localJobs 897429
scalar FogSequentialForward.fog[95].dispatcher internalJobs 901292
scalar FogSequentialForward.fog[95].dispatcher externalJobs 1340306
scalar FogSequentialForward.fog[95].dispatcher remoteJobs 1339864
scalar FogSequentialForward.fog[95].dispatcher probeQueries 0
scalar FogSequentialForward.fog[95].dispatcher probeAnswers 0
scalar FogSequentialForward.fog[95].dispatcher droppedJobsSLA 4305
scalar FogSequentialForward.fog[95].dispatcher jobs_class_1 2241598
scalar FogSequentialForward.fog[95].dispatcher remoteJobs_class_1 1339864
scalar FogSequentialForward.fog[95].dispatcher localJobs_class_1 897429
scalar FogSequentialForward.fog[95].dispatcher droppedJobsSLA_class_1 4305
scalar FogSequentialForward.fog[95].server[0] rho 0.99999886751175
scalar FogSequentialForward.fog[95].server[0] congestionRatio 0
scalar FogSequentialForward.fog[95].server[0] totalJobs 897429
scalar FogSequentialForward.fog[95].server[0] droppedJobsQueue 15
scalar FogSequentialForward.fog[95].server[0] droppedJobsTimout 0
scalar FogSequentialForward.fog[95].server[0] droppedJobsSLA 396798
scalar FogSequentialForward.fog[95].server[0] droppedJobsTotal 396813
scalar FogSequentialForward.fog[96].dispatcher localJobs 897156
scalar FogSequentialForward.fog[96].dispatcher internalJobs 901103
scalar FogSequentialForward.fog[96].dispatcher externalJobs 1338364
scalar FogSequentialForward.fog[96].dispatcher remoteJobs 1337914
scalar FogSequentialForward.fog[96].dispatcher probeQueries 0
scalar FogSequentialForward.fog[96].dispatcher probeAnswers 0
scalar FogSequentialForward.fog[96].dispatcher droppedJobsSLA 4397
scalar FogSequentialForward.fog[96].dispatcher jobs_class_1 2239467
scalar FogSequentialForward.fog[96].dispatcher remoteJobs_class_1 1337914
scalar FogSequentialForward.fog[96].dispatcher localJobs_class_1 897156
scalar FogSequentialForward.fog[96].dispatcher droppedJobsSLA_class_1 4397
scalar FogSequentialForward.fog[96].server[0] rho 0.99999922513962
scalar FogSequentialForward.fog[96].server[0] congestionRatio 0
scalar FogSequentialForward.fog[96].server[0] totalJobs 897156
scalar FogSequentialForward.fog[96].server[0] droppedJobsQueue 15
scalar FogSequentialForward.fog[96].server[0] droppedJobsTimout 0
scalar FogSequentialForward.fog[96].server[0] droppedJobsSLA 396851
scalar FogSequentialForward.fog[96].server[0] droppedJobsTotal 396866
scalar FogSequentialForward.fog[97].dispatcher localJobs 897128
scalar FogSequentialForward.fog[97].dispatcher internalJobs 901609
scalar FogSequentialForward.fog[97].dispatcher externalJobs 1339650
scalar FogSequentialForward.fog[97].dispatcher remoteJobs 1339728
scalar FogSequentialForward.fog[97].dispatcher probeQueries 0
scalar FogSequentialForward.fog[97].dispatcher probeAnswers 0
scalar FogSequentialForward.fog[97].dispatcher droppedJobsSLA 4403
scalar FogSequentialForward.fog[97].dispatcher jobs_class_1 2241259
scalar FogSequentialForward.fog[97].dispatcher remoteJobs_class_1 1339728
scalar FogSequentialForward.fog[97].dispatcher localJobs_class_1 897128
scalar FogSequentialForward.fog[97].dispatcher droppedJobsSLA_class_1 4403
scalar FogSequentialForward.fog[97].server[0] rho 0.9999948143959
scalar FogSequentialForward.fog[97].server[0] congestionRatio 0
scalar FogSequentialForward.fog[97].server[0] totalJobs 897128
scalar FogSequentialForward.fog[97].server[0] droppedJobsQueue 13
scalar FogSequentialForward.fog[97].server[0] droppedJobsTimout 0
scalar FogSequentialForward.fog[97].server[0] droppedJobsSLA 397149
scalar FogSequentialForward.fog[97].server[0] droppedJobsTotal 397162
scalar FogSequentialForward.fog[98].dispatcher localJobs 897253
scalar FogSequentialForward.fog[98].dispatcher internalJobs 899734
scalar FogSequentialForward.fog[98].dispatcher externalJobs 1339862
scalar FogSequentialForward.fog[98].dispatcher remoteJobs 1337953
scalar FogSequentialForward.fog[98].dispatcher probeQueries 0
scalar FogSequentialForward.fog[98].dispatcher probeAnswers 0
scalar FogSequentialForward.fog[98].dispatcher droppedJobsSLA 4390
scalar FogSequentialForward.fog[98].dispatcher jobs_class_1 2239596
scalar FogSequentialForward.fog[98].dispatcher remoteJobs_class_1 1337953
scalar FogSequentialForward.fog[98].dispatcher localJobs_class_1 897253
scalar FogSequentialForward.fog[98].dispatcher droppedJobsSLA_class_1 4390
scalar FogSequentialForward.fog[98].server[0] rho 1
scalar FogSequentialForward.fog[98].server[0] congestionRatio 0
scalar FogSequentialForward.fog[98].server[0] totalJobs 897253
scalar FogSequentialForward.fog[98].server[0] droppedJobsQueue 18
scalar FogSequentialForward.fog[98].server[0] droppedJobsTimout 0
scalar FogSequentialForward.fog[98].server[0] droppedJobsSLA 397495
scalar FogSequentialForward.fog[98].server[0] droppedJobsTotal 397513
scalar FogSequentialForward.fog[99].dispatcher localJobs 896883
scalar FogSequentialForward.fog[99].dispatcher internalJobs 901249
scalar FogSequentialForward.fog[99].dispatcher externalJobs 1338483
scalar FogSequentialForward.fog[99].dispatcher remoteJobs 1338343
scalar FogSequentialForward.fog[99].dispatcher probeQueries 0
scalar FogSequentialForward.fog[99].dispatcher probeAnswers 0
scalar FogSequentialForward.fog[99].dispatcher droppedJobsSLA 4506
scalar FogSequentialForward.fog[99].dispatcher jobs_class_1 2239732
scalar FogSequentialForward.fog[99].dispatcher remoteJobs_class_1 1338343
scalar FogSequentialForward.fog[99].dispatcher localJobs_class_1 896883
scalar FogSequentialForward.fog[99].dispatcher droppedJobsSLA_class_1 4506
scalar FogSequentialForward.fog[99].server[0] rho 0.99999642372131
scalar FogSequentialForward.fog[99].server[0] congestionRatio 0
scalar FogSequentialForward.fog[99].server[0] totalJobs 896883
scalar FogSequentialForward.fog[99].server[0] droppedJobsQueue 10
scalar FogSequentialForward.fog[99].server[0] droppedJobsTimout 0
scalar FogSequentialForward.fog[99].server[0] droppedJobsSLA 396284
scalar FogSequentialForward.fog[99].server[0] droppedJobsTotal 396294
scalar FogSequentialForward.sink avg_responseTime_1 0.14010961312315
scalar FogSequentialForward.sink p90_responseTime_1 0.015802563547
scalar FogSequentialForward.sink med_responseTime_1 0.015802563547
scalar FogSequentialForward.sink avg_delayTime_1 0
scalar FogSequentialForward.sink p90_delayTime_1 0
scalar FogSequentialForward.sink med_delayTime_1 0
scalar FogSequentialForward.sink avg_queuingTime_1 0.11424590683733
scalar FogSequentialForward.sink p90_queuingTime_1 0
scalar FogSequentialForward.sink med_queuingTime_1 0
scalar FogSequentialForward.sink avg_serviceTime_1 0.016722967596223
scalar FogSequentialForward.sink p90_serviceTime_1 0.01471428783
scalar FogSequentialForward.sink med_serviceTime_1 0.01471428783
scalar FogSequentialForward.sink avg_balancerTime_1 0.0091407386873462
scalar FogSequentialForward.sink p90_balancerTime_1 0
scalar FogSequentialForward.sink med_balancerTime_1 0
scalar FogSequentialForward.sink avg_balancerCount_1 1.5473496221267
scalar FogSequentialForward.sink p90_balancerCount_1 1
scalar FogSequentialForward.sink med_balancerCount_1 1

