version 2
run Fog-mul_10-rho_02-thr_5-0-20190714-01:55:27-88900
attr configname Fog-mul_10-rho_02-thr_5
attr datetime 20190714-01:55:27
attr experiment Fog-mul_10-rho_02-thr_5
attr inifile FogSequentialForward.ini
attr iterationvars ""
attr iterationvarsf ""
attr measurement ""
attr network FogSequentialForward
attr processid 88900
attr repetition 0
attr replication #0
attr resultdir results
attr runnumber 0
attr seedset 0
param FogSequentialForward.proctimeMul 1.0
param FogSequentialForward.rho 0.2
param FogSequentialForward.fog[*].dispatcher.thr 5
param FogSequentialForward.nSources 100
param FogSequentialForward.rho 0.9
param FogSequentialForward.proctimeMul 1.0
param FogSequentialForward.source[*].appId 1
param FogSequentialForward.source[*].realTime true
param FogSequentialForward.source[*].multiHop true
param FogSequentialForward.fog[*].nServers 1
param FogSequentialForward.fog[*].dispatcher.fanOut 1
param FogSequentialForward.fog[*].server[*].timeSlice -1s
param FogSequentialForward.fog[*].server[*].timeout -1s
param FogSequentialForward.fog[*].server[*].capacity 20
param FogSequentialForward.fog[*].server[*].fifo true
param FogSequentialForward.fog[*].server[*].maxServiceTime -1s
param FogSequentialForward.fog[*].dispatcher.thr 1

scalar FogSequentialForward.fog[0].dispatcher localJobs 3589
scalar FogSequentialForward.fog[0].dispatcher internalJobs 3593
scalar FogSequentialForward.fog[0].dispatcher externalJobs 26
scalar FogSequentialForward.fog[0].dispatcher remoteJobs 30
scalar FogSequentialForward.fog[0].dispatcher probeQueries 0
scalar FogSequentialForward.fog[0].dispatcher probeAnswers 0
scalar FogSequentialForward.fog[0].dispatcher droppedJobsSLA 0
scalar FogSequentialForward.fog[0].dispatcher jobs_class_1 3619
scalar FogSequentialForward.fog[0].dispatcher remoteJobs_class_1 30
scalar FogSequentialForward.fog[0].dispatcher localJobs_class_1 3589
scalar FogSequentialForward.fog[0].server[0] rho 0.55457305908203
scalar FogSequentialForward.fog[0].server[0] congestionRatio 0
scalar FogSequentialForward.fog[0].server[0] totalJobs 3589
scalar FogSequentialForward.fog[0].server[0] droppedJobsQueue 0
scalar FogSequentialForward.fog[0].server[0] droppedJobsTimout 0
scalar FogSequentialForward.fog[0].server[0] droppedJobsSLA 0
scalar FogSequentialForward.fog[0].server[0] droppedJobsTotal 0
scalar FogSequentialForward.fog[1].dispatcher localJobs 3586
scalar FogSequentialForward.fog[1].dispatcher internalJobs 3579
scalar FogSequentialForward.fog[1].dispatcher externalJobs 32
scalar FogSequentialForward.fog[1].dispatcher remoteJobs 25
scalar FogSequentialForward.fog[1].dispatcher probeQueries 0
scalar FogSequentialForward.fog[1].dispatcher probeAnswers 0
scalar FogSequentialForward.fog[1].dispatcher droppedJobsSLA 0
scalar FogSequentialForward.fog[1].dispatcher jobs_class_1 3611
scalar FogSequentialForward.fog[1].dispatcher remoteJobs_class_1 25
scalar FogSequentialForward.fog[1].dispatcher localJobs_class_1 3586
scalar FogSequentialForward.fog[1].server[0] rho 0.55445212125778
scalar FogSequentialForward.fog[1].server[0] congestionRatio 0
scalar FogSequentialForward.fog[1].server[0] totalJobs 3586
scalar FogSequentialForward.fog[1].server[0] droppedJobsQueue 0
scalar FogSequentialForward.fog[1].server[0] droppedJobsTimout 0
scalar FogSequentialForward.fog[1].server[0] droppedJobsSLA 0
scalar FogSequentialForward.fog[1].server[0] droppedJobsTotal 0
scalar FogSequentialForward.fog[2].dispatcher localJobs 3664
scalar FogSequentialForward.fog[2].dispatcher internalJobs 3666
scalar FogSequentialForward.fog[2].dispatcher externalJobs 23
scalar FogSequentialForward.fog[2].dispatcher remoteJobs 25
scalar FogSequentialForward.fog[2].dispatcher probeQueries 0
scalar FogSequentialForward.fog[2].dispatcher probeAnswers 0
scalar FogSequentialForward.fog[2].dispatcher droppedJobsSLA 0
scalar FogSequentialForward.fog[2].dispatcher jobs_class_1 3689
scalar FogSequentialForward.fog[2].dispatcher remoteJobs_class_1 25
scalar FogSequentialForward.fog[2].dispatcher localJobs_class_1 3664
scalar FogSequentialForward.fog[2].server[0] rho 0.5666475892067
scalar FogSequentialForward.fog[2].server[0] congestionRatio 0
scalar FogSequentialForward.fog[2].server[0] totalJobs 3664
scalar FogSequentialForward.fog[2].server[0] droppedJobsQueue 0
scalar FogSequentialForward.fog[2].server[0] droppedJobsTimout 0
scalar FogSequentialForward.fog[2].server[0] droppedJobsSLA 0
scalar FogSequentialForward.fog[2].server[0] droppedJobsTotal 0
scalar FogSequentialForward.fog[3].dispatcher localJobs 3615
scalar FogSequentialForward.fog[3].dispatcher internalJobs 3614
scalar FogSequentialForward.fog[3].dispatcher externalJobs 31
scalar FogSequentialForward.fog[3].dispatcher remoteJobs 30
scalar FogSequentialForward.fog[3].dispatcher probeQueries 0
scalar FogSequentialForward.fog[3].dispatcher probeAnswers 0
scalar FogSequentialForward.fog[3].dispatcher droppedJobsSLA 0
scalar FogSequentialForward.fog[3].dispatcher jobs_class_1 3645
scalar FogSequentialForward.fog[3].dispatcher remoteJobs_class_1 30
scalar FogSequentialForward.fog[3].dispatcher localJobs_class_1 3615
scalar FogSequentialForward.fog[3].server[0] rho 0.558773458004
scalar FogSequentialForward.fog[3].server[0] congestionRatio 0
scalar FogSequentialForward.fog[3].server[0] totalJobs 3615
scalar FogSequentialForward.fog[3].server[0] droppedJobsQueue 0
scalar FogSequentialForward.fog[3].server[0] droppedJobsTimout 0
scalar FogSequentialForward.fog[3].server[0] droppedJobsSLA 0
scalar FogSequentialForward.fog[3].server[0] droppedJobsTotal 0
scalar FogSequentialForward.fog[4].dispatcher localJobs 3645
scalar FogSequentialForward.fog[4].dispatcher internalJobs 3652
scalar FogSequentialForward.fog[4].dispatcher externalJobs 24
scalar FogSequentialForward.fog[4].dispatcher remoteJobs 31
scalar FogSequentialForward.fog[4].dispatcher probeQueries 0
scalar FogSequentialForward.fog[4].dispatcher probeAnswers 0
scalar FogSequentialForward.fog[4].dispatcher droppedJobsSLA 0
scalar FogSequentialForward.fog[4].dispatcher jobs_class_1 3676
scalar FogSequentialForward.fog[4].dispatcher remoteJobs_class_1 31
scalar FogSequentialForward.fog[4].dispatcher localJobs_class_1 3645
scalar FogSequentialForward.fog[4].server[0] rho 0.5632266998291
scalar FogSequentialForward.fog[4].server[0] congestionRatio 0
scalar FogSequentialForward.fog[4].server[0] totalJobs 3645
scalar FogSequentialForward.fog[4].server[0] droppedJobsQueue 0
scalar FogSequentialForward.fog[4].server[0] droppedJobsTimout 0
scalar FogSequentialForward.fog[4].server[0] droppedJobsSLA 0
scalar FogSequentialForward.fog[4].server[0] droppedJobsTotal 0
scalar FogSequentialForward.fog[5].dispatcher localJobs 3592
scalar FogSequentialForward.fog[5].dispatcher internalJobs 3596
scalar FogSequentialForward.fog[5].dispatcher externalJobs 18
scalar FogSequentialForward.fog[5].dispatcher remoteJobs 22
scalar FogSequentialForward.fog[5].dispatcher probeQueries 0
scalar FogSequentialForward.fog[5].dispatcher probeAnswers 0
scalar FogSequentialForward.fog[5].dispatcher droppedJobsSLA 0
scalar FogSequentialForward.fog[5].dispatcher jobs_class_1 3614
scalar FogSequentialForward.fog[5].dispatcher remoteJobs_class_1 22
scalar FogSequentialForward.fog[5].dispatcher localJobs_class_1 3592
scalar FogSequentialForward.fog[5].server[0] rho 0.55515658855438
scalar FogSequentialForward.fog[5].server[0] congestionRatio 0
scalar FogSequentialForward.fog[5].server[0] totalJobs 3592
scalar FogSequentialForward.fog[5].server[0] droppedJobsQueue 0
scalar FogSequentialForward.fog[5].server[0] droppedJobsTimout 0
scalar FogSequentialForward.fog[5].server[0] droppedJobsSLA 0
scalar FogSequentialForward.fog[5].server[0] droppedJobsTotal 0
scalar FogSequentialForward.fog[6].dispatcher localJobs 3639
scalar FogSequentialForward.fog[6].dispatcher internalJobs 3641
scalar FogSequentialForward.fog[6].dispatcher externalJobs 22
scalar FogSequentialForward.fog[6].dispatcher remoteJobs 24
scalar FogSequentialForward.fog[6].dispatcher probeQueries 0
scalar FogSequentialForward.fog[6].dispatcher probeAnswers 0
scalar FogSequentialForward.fog[6].dispatcher droppedJobsSLA 0
scalar FogSequentialForward.fog[6].dispatcher jobs_class_1 3663
scalar FogSequentialForward.fog[6].dispatcher remoteJobs_class_1 24
scalar FogSequentialForward.fog[6].dispatcher localJobs_class_1 3639
scalar FogSequentialForward.fog[6].server[0] rho 0.56273812055588
scalar FogSequentialForward.fog[6].server[0] congestionRatio 0
scalar FogSequentialForward.fog[6].server[0] totalJobs 3639
scalar FogSequentialForward.fog[6].server[0] droppedJobsQueue 0
scalar FogSequentialForward.fog[6].server[0] droppedJobsTimout 0
scalar FogSequentialForward.fog[6].server[0] droppedJobsSLA 0
scalar FogSequentialForward.fog[6].server[0] droppedJobsTotal 0
scalar FogSequentialForward.fog[7].dispatcher localJobs 3579
scalar FogSequentialForward.fog[7].dispatcher internalJobs 3563
scalar FogSequentialForward.fog[7].dispatcher externalJobs 34
scalar FogSequentialForward.fog[7].dispatcher remoteJobs 18
scalar FogSequentialForward.fog[7].dispatcher probeQueries 0
scalar FogSequentialForward.fog[7].dispatcher probeAnswers 0
scalar FogSequentialForward.fog[7].dispatcher droppedJobsSLA 0
scalar FogSequentialForward.fog[7].dispatcher jobs_class_1 3597
scalar FogSequentialForward.fog[7].dispatcher remoteJobs_class_1 18
scalar FogSequentialForward.fog[7].dispatcher localJobs_class_1 3579
scalar FogSequentialForward.fog[7].server[0] rho 0.5534280538559
scalar FogSequentialForward.fog[7].server[0] congestionRatio 0
scalar FogSequentialForward.fog[7].server[0] totalJobs 3579
scalar FogSequentialForward.fog[7].server[0] droppedJobsQueue 0
scalar FogSequentialForward.fog[7].server[0] droppedJobsTimout 0
scalar FogSequentialForward.fog[7].server[0] droppedJobsSLA 0
scalar FogSequentialForward.fog[7].server[0] droppedJobsTotal 0
scalar FogSequentialForward.fog[8].dispatcher localJobs 3483
scalar FogSequentialForward.fog[8].dispatcher internalJobs 3487
scalar FogSequentialForward.fog[8].dispatcher externalJobs 18
scalar FogSequentialForward.fog[8].dispatcher remoteJobs 22
scalar FogSequentialForward.fog[8].dispatcher probeQueries 0
scalar FogSequentialForward.fog[8].dispatcher probeAnswers 0
scalar FogSequentialForward.fog[8].dispatcher droppedJobsSLA 0
scalar FogSequentialForward.fog[8].dispatcher jobs_class_1 3505
scalar FogSequentialForward.fog[8].dispatcher remoteJobs_class_1 22
scalar FogSequentialForward.fog[8].dispatcher localJobs_class_1 3483
scalar FogSequentialForward.fog[8].server[0] rho 0.53850311040878
scalar FogSequentialForward.fog[8].server[0] congestionRatio 0
scalar FogSequentialForward.fog[8].server[0] totalJobs 3483
scalar FogSequentialForward.fog[8].server[0] droppedJobsQueue 0
scalar FogSequentialForward.fog[8].server[0] droppedJobsTimout 0
scalar FogSequentialForward.fog[8].server[0] droppedJobsSLA 0
scalar FogSequentialForward.fog[8].server[0] droppedJobsTotal 0
scalar FogSequentialForward.fog[9].dispatcher localJobs 3653
scalar FogSequentialForward.fog[9].dispatcher internalJobs 3648
scalar FogSequentialForward.fog[9].dispatcher externalJobs 28
scalar FogSequentialForward.fog[9].dispatcher remoteJobs 23
scalar FogSequentialForward.fog[9].dispatcher probeQueries 0
scalar FogSequentialForward.fog[9].dispatcher probeAnswers 0
scalar FogSequentialForward.fog[9].dispatcher droppedJobsSLA 0
scalar FogSequentialForward.fog[9].dispatcher jobs_class_1 3676
scalar FogSequentialForward.fog[9].dispatcher remoteJobs_class_1 23
scalar FogSequentialForward.fog[9].dispatcher localJobs_class_1 3653
scalar FogSequentialForward.fog[9].server[0] rho 0.56485253572464
scalar FogSequentialForward.fog[9].server[0] congestionRatio 0
scalar FogSequentialForward.fog[9].server[0] totalJobs 3653
scalar FogSequentialForward.fog[9].server[0] droppedJobsQueue 0
scalar FogSequentialForward.fog[9].server[0] droppedJobsTimout 0
scalar FogSequentialForward.fog[9].server[0] droppedJobsSLA 0
scalar FogSequentialForward.fog[9].server[0] droppedJobsTotal 0
scalar FogSequentialForward.fog[10].dispatcher localJobs 3619
scalar FogSequentialForward.fog[10].dispatcher internalJobs 3603
scalar FogSequentialForward.fog[10].dispatcher externalJobs 36
scalar FogSequentialForward.fog[10].dispatcher remoteJobs 20
scalar FogSequentialForward.fog[10].dispatcher probeQueries 0
scalar FogSequentialForward.fog[10].dispatcher probeAnswers 0
scalar FogSequentialForward.fog[10].dispatcher droppedJobsSLA 0
scalar FogSequentialForward.fog[10].dispatcher jobs_class_1 3639
scalar FogSequentialForward.fog[10].dispatcher remoteJobs_class_1 20
scalar FogSequentialForward.fog[10].dispatcher localJobs_class_1 3619
scalar FogSequentialForward.fog[10].server[0] rho 0.55978453159332
scalar FogSequentialForward.fog[10].server[0] congestionRatio 0
scalar FogSequentialForward.fog[10].server[0] totalJobs 3619
scalar FogSequentialForward.fog[10].server[0] droppedJobsQueue 0
scalar FogSequentialForward.fog[10].server[0] droppedJobsTimout 0
scalar FogSequentialForward.fog[10].server[0] droppedJobsSLA 0
scalar FogSequentialForward.fog[10].server[0] droppedJobsTotal 0
scalar FogSequentialForward.fog[11].dispatcher localJobs 3565
scalar FogSequentialForward.fog[11].dispatcher internalJobs 3555
scalar FogSequentialForward.fog[11].dispatcher externalJobs 28
scalar FogSequentialForward.fog[11].dispatcher remoteJobs 18
scalar FogSequentialForward.fog[11].dispatcher probeQueries 0
scalar FogSequentialForward.fog[11].dispatcher probeAnswers 0
scalar FogSequentialForward.fog[11].dispatcher droppedJobsSLA 0
scalar FogSequentialForward.fog[11].dispatcher jobs_class_1 3583
scalar FogSequentialForward.fog[11].dispatcher remoteJobs_class_1 18
scalar FogSequentialForward.fog[11].dispatcher localJobs_class_1 3565
scalar FogSequentialForward.fog[11].server[0] rho 0.55143392086029
scalar FogSequentialForward.fog[11].server[0] congestionRatio 0
scalar FogSequentialForward.fog[11].server[0] totalJobs 3565
scalar FogSequentialForward.fog[11].server[0] droppedJobsQueue 0
scalar FogSequentialForward.fog[11].server[0] droppedJobsTimout 0
scalar FogSequentialForward.fog[11].server[0] droppedJobsSLA 0
scalar FogSequentialForward.fog[11].server[0] droppedJobsTotal 0
scalar FogSequentialForward.fog[12].dispatcher localJobs 3553
scalar FogSequentialForward.fog[12].dispatcher internalJobs 3554
scalar FogSequentialForward.fog[12].dispatcher externalJobs 26
scalar FogSequentialForward.fog[12].dispatcher remoteJobs 27
scalar FogSequentialForward.fog[12].dispatcher probeQueries 0
scalar FogSequentialForward.fog[12].dispatcher probeAnswers 0
scalar FogSequentialForward.fog[12].dispatcher droppedJobsSLA 0
scalar FogSequentialForward.fog[12].dispatcher jobs_class_1 3580
scalar FogSequentialForward.fog[12].dispatcher remoteJobs_class_1 27
scalar FogSequentialForward.fog[12].dispatcher localJobs_class_1 3553
scalar FogSequentialForward.fog[12].server[0] rho 0.54925274848938
scalar FogSequentialForward.fog[12].server[0] congestionRatio 0
scalar FogSequentialForward.fog[12].server[0] totalJobs 3553
scalar FogSequentialForward.fog[12].server[0] droppedJobsQueue 0
scalar FogSequentialForward.fog[12].server[0] droppedJobsTimout 0
scalar FogSequentialForward.fog[12].server[0] droppedJobsSLA 0
scalar FogSequentialForward.fog[12].server[0] droppedJobsTotal 0
scalar FogSequentialForward.fog[13].dispatcher localJobs 3603
scalar FogSequentialForward.fog[13].dispatcher internalJobs 3609
scalar FogSequentialForward.fog[13].dispatcher externalJobs 30
scalar FogSequentialForward.fog[13].dispatcher remoteJobs 36
scalar FogSequentialForward.fog[13].dispatcher probeQueries 0
scalar FogSequentialForward.fog[13].dispatcher probeAnswers 0
scalar FogSequentialForward.fog[13].dispatcher droppedJobsSLA 0
scalar FogSequentialForward.fog[13].dispatcher jobs_class_1 3639
scalar FogSequentialForward.fog[13].dispatcher remoteJobs_class_1 36
scalar FogSequentialForward.fog[13].dispatcher localJobs_class_1 3603
scalar FogSequentialForward.fog[13].server[0] rho 0.55677938461304
scalar FogSequentialForward.fog[13].server[0] congestionRatio 0
scalar FogSequentialForward.fog[13].server[0] totalJobs 3603
scalar FogSequentialForward.fog[13].server[0] droppedJobsQueue 0
scalar FogSequentialForward.fog[13].server[0] droppedJobsTimout 0
scalar FogSequentialForward.fog[13].server[0] droppedJobsSLA 0
scalar FogSequentialForward.fog[13].server[0] droppedJobsTotal 0
scalar FogSequentialForward.fog[14].dispatcher localJobs 3670
scalar FogSequentialForward.fog[14].dispatcher internalJobs 3667
scalar FogSequentialForward.fog[14].dispatcher externalJobs 28
scalar FogSequentialForward.fog[14].dispatcher remoteJobs 25
scalar FogSequentialForward.fog[14].dispatcher probeQueries 0
scalar FogSequentialForward.fog[14].dispatcher probeAnswers 0
scalar FogSequentialForward.fog[14].dispatcher droppedJobsSLA 0
scalar FogSequentialForward.fog[14].dispatcher jobs_class_1 3695
scalar FogSequentialForward.fog[14].dispatcher remoteJobs_class_1 25
scalar FogSequentialForward.fog[14].dispatcher localJobs_class_1 3670
scalar FogSequentialForward.fog[14].server[0] rho 0.56725031137466
scalar FogSequentialForward.fog[14].server[0] congestionRatio 0
scalar FogSequentialForward.fog[14].server[0] totalJobs 3670
scalar FogSequentialForward.fog[14].server[0] droppedJobsQueue 0
scalar FogSequentialForward.fog[14].server[0] droppedJobsTimout 0
scalar FogSequentialForward.fog[14].server[0] droppedJobsSLA 0
scalar FogSequentialForward.fog[14].server[0] droppedJobsTotal 0
scalar FogSequentialForward.fog[15].dispatcher localJobs 3600
scalar FogSequentialForward.fog[15].dispatcher internalJobs 3606
scalar FogSequentialForward.fog[15].dispatcher externalJobs 23
scalar FogSequentialForward.fog[15].dispatcher remoteJobs 29
scalar FogSequentialForward.fog[15].dispatcher probeQueries 0
scalar FogSequentialForward.fog[15].dispatcher probeAnswers 0
scalar FogSequentialForward.fog[15].dispatcher droppedJobsSLA 0
scalar FogSequentialForward.fog[15].dispatcher jobs_class_1 3629
scalar FogSequentialForward.fog[15].dispatcher remoteJobs_class_1 29
scalar FogSequentialForward.fog[15].dispatcher localJobs_class_1 3600
scalar FogSequentialForward.fog[15].server[0] rho 0.55657887458801
scalar FogSequentialForward.fog[15].server[0] congestionRatio 0
scalar FogSequentialForward.fog[15].server[0] totalJobs 3600
scalar FogSequentialForward.fog[15].server[0] droppedJobsQueue 0
scalar FogSequentialForward.fog[15].server[0] droppedJobsTimout 0
scalar FogSequentialForward.fog[15].server[0] droppedJobsSLA 0
scalar FogSequentialForward.fog[15].server[0] droppedJobsTotal 0
scalar FogSequentialForward.fog[16].dispatcher localJobs 3569
scalar FogSequentialForward.fog[16].dispatcher internalJobs 3565
scalar FogSequentialForward.fog[16].dispatcher externalJobs 24
scalar FogSequentialForward.fog[16].dispatcher remoteJobs 20
scalar FogSequentialForward.fog[16].dispatcher probeQueries 0
scalar FogSequentialForward.fog[16].dispatcher probeAnswers 0
scalar FogSequentialForward.fog[16].dispatcher droppedJobsSLA 0
scalar FogSequentialForward.fog[16].dispatcher jobs_class_1 3589
scalar FogSequentialForward.fog[16].dispatcher remoteJobs_class_1 20
scalar FogSequentialForward.fog[16].dispatcher localJobs_class_1 3569
scalar FogSequentialForward.fog[16].server[0] rho 0.55175399780273
scalar FogSequentialForward.fog[16].server[0] congestionRatio 0
scalar FogSequentialForward.fog[16].server[0] totalJobs 3569
scalar FogSequentialForward.fog[16].server[0] droppedJobsQueue 0
scalar FogSequentialForward.fog[16].server[0] droppedJobsTimout 0
scalar FogSequentialForward.fog[16].server[0] droppedJobsSLA 0
scalar FogSequentialForward.fog[16].server[0] droppedJobsTotal 0
scalar FogSequentialForward.fog[17].dispatcher localJobs 3499
scalar FogSequentialForward.fog[17].dispatcher internalJobs 3495
scalar FogSequentialForward.fog[17].dispatcher externalJobs 22
scalar FogSequentialForward.fog[17].dispatcher remoteJobs 18
scalar FogSequentialForward.fog[17].dispatcher probeQueries 0
scalar FogSequentialForward.fog[17].dispatcher probeAnswers 0
scalar FogSequentialForward.fog[17].dispatcher droppedJobsSLA 0
scalar FogSequentialForward.fog[17].dispatcher jobs_class_1 3517
scalar FogSequentialForward.fog[17].dispatcher remoteJobs_class_1 18
scalar FogSequentialForward.fog[17].dispatcher localJobs_class_1 3499
scalar FogSequentialForward.fog[17].server[0] rho 0.54102951288223
scalar FogSequentialForward.fog[17].server[0] congestionRatio 0
scalar FogSequentialForward.fog[17].server[0] totalJobs 3499
scalar FogSequentialForward.fog[17].server[0] droppedJobsQueue 0
scalar FogSequentialForward.fog[17].server[0] droppedJobsTimout 0
scalar FogSequentialForward.fog[17].server[0] droppedJobsSLA 0
scalar FogSequentialForward.fog[17].server[0] droppedJobsTotal 0
scalar FogSequentialForward.fog[18].dispatcher localJobs 3605
scalar FogSequentialForward.fog[18].dispatcher internalJobs 3612
scalar FogSequentialForward.fog[18].dispatcher externalJobs 15
scalar FogSequentialForward.fog[18].dispatcher remoteJobs 22
scalar FogSequentialForward.fog[18].dispatcher probeQueries 0
scalar FogSequentialForward.fog[18].dispatcher probeAnswers 0
scalar FogSequentialForward.fog[18].dispatcher droppedJobsSLA 0
scalar FogSequentialForward.fog[18].dispatcher jobs_class_1 3627
scalar FogSequentialForward.fog[18].dispatcher remoteJobs_class_1 22
scalar FogSequentialForward.fog[18].dispatcher localJobs_class_1 3605
scalar FogSequentialForward.fog[18].server[0] rho 0.55741435289383
scalar FogSequentialForward.fog[18].server[0] congestionRatio 0
scalar FogSequentialForward.fog[18].server[0] totalJobs 3605
scalar FogSequentialForward.fog[18].server[0] droppedJobsQueue 0
scalar FogSequentialForward.fog[18].server[0] droppedJobsTimout 0
scalar FogSequentialForward.fog[18].server[0] droppedJobsSLA 0
scalar FogSequentialForward.fog[18].server[0] droppedJobsTotal 0
scalar FogSequentialForward.fog[19].dispatcher localJobs 3681
scalar FogSequentialForward.fog[19].dispatcher internalJobs 3679
scalar FogSequentialForward.fog[19].dispatcher externalJobs 34
scalar FogSequentialForward.fog[19].dispatcher remoteJobs 32
scalar FogSequentialForward.fog[19].dispatcher probeQueries 0
scalar FogSequentialForward.fog[19].dispatcher probeAnswers 0
scalar FogSequentialForward.fog[19].dispatcher droppedJobsSLA 0
scalar FogSequentialForward.fog[19].dispatcher jobs_class_1 3713
scalar FogSequentialForward.fog[19].dispatcher remoteJobs_class_1 32
scalar FogSequentialForward.fog[19].dispatcher localJobs_class_1 3681
scalar FogSequentialForward.fog[19].server[0] rho 0.56872689723969
scalar FogSequentialForward.fog[19].server[0] congestionRatio 0
scalar FogSequentialForward.fog[19].server[0] totalJobs 3681
scalar FogSequentialForward.fog[19].server[0] droppedJobsQueue 0
scalar FogSequentialForward.fog[19].server[0] droppedJobsTimout 0
scalar FogSequentialForward.fog[19].server[0] droppedJobsSLA 0
scalar FogSequentialForward.fog[19].server[0] droppedJobsTotal 0
scalar FogSequentialForward.fog[20].dispatcher localJobs 3638
scalar FogSequentialForward.fog[20].dispatcher internalJobs 3634
scalar FogSequentialForward.fog[20].dispatcher externalJobs 32
scalar FogSequentialForward.fog[20].dispatcher remoteJobs 28
scalar FogSequentialForward.fog[20].dispatcher probeQueries 0
scalar FogSequentialForward.fog[20].dispatcher probeAnswers 0
scalar FogSequentialForward.fog[20].dispatcher droppedJobsSLA 0
scalar FogSequentialForward.fog[20].dispatcher jobs_class_1 3666
scalar FogSequentialForward.fog[20].dispatcher remoteJobs_class_1 28
scalar FogSequentialForward.fog[20].dispatcher localJobs_class_1 3638
scalar FogSequentialForward.fog[20].server[0] rho 0.56236529350281
scalar FogSequentialForward.fog[20].server[0] congestionRatio 0
scalar FogSequentialForward.fog[20].server[0] totalJobs 3638
scalar FogSequentialForward.fog[20].server[0] droppedJobsQueue 0
scalar FogSequentialForward.fog[20].server[0] droppedJobsTimout 0
scalar FogSequentialForward.fog[20].server[0] droppedJobsSLA 0
scalar FogSequentialForward.fog[20].server[0] droppedJobsTotal 0
scalar FogSequentialForward.fog[21].dispatcher localJobs 3523
scalar FogSequentialForward.fog[21].dispatcher internalJobs 3530
scalar FogSequentialForward.fog[21].dispatcher externalJobs 22
scalar FogSequentialForward.fog[21].dispatcher remoteJobs 29
scalar FogSequentialForward.fog[21].dispatcher probeQueries 0
scalar FogSequentialForward.fog[21].dispatcher probeAnswers 0
scalar FogSequentialForward.fog[21].dispatcher droppedJobsSLA 0
scalar FogSequentialForward.fog[21].dispatcher jobs_class_1 3552
scalar FogSequentialForward.fog[21].dispatcher remoteJobs_class_1 29
scalar FogSequentialForward.fog[21].dispatcher localJobs_class_1 3523
scalar FogSequentialForward.fog[21].server[0] rho 0.54484766721725
scalar FogSequentialForward.fog[21].server[0] congestionRatio 0
scalar FogSequentialForward.fog[21].server[0] totalJobs 3523
scalar FogSequentialForward.fog[21].server[0] droppedJobsQueue 0
scalar FogSequentialForward.fog[21].server[0] droppedJobsTimout 0
scalar FogSequentialForward.fog[21].server[0] droppedJobsSLA 0
scalar FogSequentialForward.fog[21].server[0] droppedJobsTotal 0
scalar FogSequentialForward.fog[22].dispatcher localJobs 3627
scalar FogSequentialForward.fog[22].dispatcher internalJobs 3631
scalar FogSequentialForward.fog[22].dispatcher externalJobs 31
scalar FogSequentialForward.fog[22].dispatcher remoteJobs 35
scalar FogSequentialForward.fog[22].dispatcher probeQueries 0
scalar FogSequentialForward.fog[22].dispatcher probeAnswers 0
scalar FogSequentialForward.fog[22].dispatcher droppedJobsSLA 0
scalar FogSequentialForward.fog[22].dispatcher jobs_class_1 3662
scalar FogSequentialForward.fog[22].dispatcher remoteJobs_class_1 35
scalar FogSequentialForward.fog[22].dispatcher localJobs_class_1 3627
scalar FogSequentialForward.fog[22].server[0] rho 0.56084078550339
scalar FogSequentialForward.fog[22].server[0] congestionRatio 0
scalar FogSequentialForward.fog[22].server[0] totalJobs 3627
scalar FogSequentialForward.fog[22].server[0] droppedJobsQueue 0
scalar FogSequentialForward.fog[22].server[0] droppedJobsTimout 0
scalar FogSequentialForward.fog[22].server[0] droppedJobsSLA 0
scalar FogSequentialForward.fog[22].server[0] droppedJobsTotal 0
scalar FogSequentialForward.fog[23].dispatcher localJobs 3553
scalar FogSequentialForward.fog[23].dispatcher internalJobs 3550
scalar FogSequentialForward.fog[23].dispatcher externalJobs 26
scalar FogSequentialForward.fog[23].dispatcher remoteJobs 23
scalar FogSequentialForward.fog[23].dispatcher probeQueries 0
scalar FogSequentialForward.fog[23].dispatcher probeAnswers 0
scalar FogSequentialForward.fog[23].dispatcher droppedJobsSLA 0
scalar FogSequentialForward.fog[23].dispatcher jobs_class_1 3576
scalar FogSequentialForward.fog[23].dispatcher remoteJobs_class_1 23
scalar FogSequentialForward.fog[23].dispatcher localJobs_class_1 3553
scalar FogSequentialForward.fog[23].server[0] rho 0.54898738861084
scalar FogSequentialForward.fog[23].server[0] congestionRatio 0
scalar FogSequentialForward.fog[23].server[0] totalJobs 3553
scalar FogSequentialForward.fog[23].server[0] droppedJobsQueue 0
scalar FogSequentialForward.fog[23].server[0] droppedJobsTimout 0
scalar FogSequentialForward.fog[23].server[0] droppedJobsSLA 0
scalar FogSequentialForward.fog[23].server[0] droppedJobsTotal 0
scalar FogSequentialForward.fog[24].dispatcher localJobs 3613
scalar FogSequentialForward.fog[24].dispatcher internalJobs 3602
scalar FogSequentialForward.fog[24].dispatcher externalJobs 35
scalar FogSequentialForward.fog[24].dispatcher remoteJobs 24
scalar FogSequentialForward.fog[24].dispatcher probeQueries 0
scalar FogSequentialForward.fog[24].dispatcher probeAnswers 0
scalar FogSequentialForward.fog[24].dispatcher droppedJobsSLA 0
scalar FogSequentialForward.fog[24].dispatcher jobs_class_1 3637
scalar FogSequentialForward.fog[24].dispatcher remoteJobs_class_1 24
scalar FogSequentialForward.fog[24].dispatcher localJobs_class_1 3613
scalar FogSequentialForward.fog[24].server[0] rho 0.55886018276215
scalar FogSequentialForward.fog[24].server[0] congestionRatio 0
scalar FogSequentialForward.fog[24].server[0] totalJobs 3613
scalar FogSequentialForward.fog[24].server[0] droppedJobsQueue 0
scalar FogSequentialForward.fog[24].server[0] droppedJobsTimout 0
scalar FogSequentialForward.fog[24].server[0] droppedJobsSLA 0
scalar FogSequentialForward.fog[24].server[0] droppedJobsTotal 0
scalar FogSequentialForward.fog[25].dispatcher localJobs 3671
scalar FogSequentialForward.fog[25].dispatcher internalJobs 3673
scalar FogSequentialForward.fog[25].dispatcher externalJobs 29
scalar FogSequentialForward.fog[25].dispatcher remoteJobs 31
scalar FogSequentialForward.fog[25].dispatcher probeQueries 0
scalar FogSequentialForward.fog[25].dispatcher probeAnswers 0
scalar FogSequentialForward.fog[25].dispatcher droppedJobsSLA 0
scalar FogSequentialForward.fog[25].dispatcher jobs_class_1 3702
scalar FogSequentialForward.fog[25].dispatcher remoteJobs_class_1 31
scalar FogSequentialForward.fog[25].dispatcher localJobs_class_1 3671
scalar FogSequentialForward.fog[25].server[0] rho 0.56715834140778
scalar FogSequentialForward.fog[25].server[0] congestionRatio 0
scalar FogSequentialForward.fog[25].server[0] totalJobs 3671
scalar FogSequentialForward.fog[25].server[0] droppedJobsQueue 0
scalar FogSequentialForward.fog[25].server[0] droppedJobsTimout 0
scalar FogSequentialForward.fog[25].server[0] droppedJobsSLA 0
scalar FogSequentialForward.fog[25].server[0] droppedJobsTotal 0
scalar FogSequentialForward.fog[26].dispatcher localJobs 3589
scalar FogSequentialForward.fog[26].dispatcher internalJobs 3592
scalar FogSequentialForward.fog[26].dispatcher externalJobs 26
scalar FogSequentialForward.fog[26].dispatcher remoteJobs 29
scalar FogSequentialForward.fog[26].dispatcher probeQueries 0
scalar FogSequentialForward.fog[26].dispatcher probeAnswers 0
scalar FogSequentialForward.fog[26].dispatcher droppedJobsSLA 0
scalar FogSequentialForward.fog[26].dispatcher jobs_class_1 3618
scalar FogSequentialForward.fog[26].dispatcher remoteJobs_class_1 29
scalar FogSequentialForward.fog[26].dispatcher localJobs_class_1 3589
scalar FogSequentialForward.fog[26].server[0] rho 0.55506753921509
scalar FogSequentialForward.fog[26].server[0] congestionRatio 0
scalar FogSequentialForward.fog[26].server[0] totalJobs 3589
scalar FogSequentialForward.fog[26].server[0] droppedJobsQueue 0
scalar FogSequentialForward.fog[26].server[0] droppedJobsTimout 0
scalar FogSequentialForward.fog[26].server[0] droppedJobsSLA 0
scalar FogSequentialForward.fog[26].server[0] droppedJobsTotal 0
scalar FogSequentialForward.fog[27].dispatcher localJobs 3587
scalar FogSequentialForward.fog[27].dispatcher internalJobs 3589
scalar FogSequentialForward.fog[27].dispatcher externalJobs 26
scalar FogSequentialForward.fog[27].dispatcher remoteJobs 28
scalar FogSequentialForward.fog[27].dispatcher probeQueries 0
scalar FogSequentialForward.fog[27].dispatcher probeAnswers 0
scalar FogSequentialForward.fog[27].dispatcher droppedJobsSLA 0
scalar FogSequentialForward.fog[27].dispatcher jobs_class_1 3615
scalar FogSequentialForward.fog[27].dispatcher remoteJobs_class_1 28
scalar FogSequentialForward.fog[27].dispatcher localJobs_class_1 3587
scalar FogSequentialForward.fog[27].server[0] rho 0.55433356761932
scalar FogSequentialForward.fog[27].server[0] congestionRatio 0
scalar FogSequentialForward.fog[27].server[0] totalJobs 3587
scalar FogSequentialForward.fog[27].server[0] droppedJobsQueue 0
scalar FogSequentialForward.fog[27].server[0] droppedJobsTimout 0
scalar FogSequentialForward.fog[27].server[0] droppedJobsSLA 0
scalar FogSequentialForward.fog[27].server[0] droppedJobsTotal 0
scalar FogSequentialForward.fog[28].dispatcher localJobs 3604
scalar FogSequentialForward.fog[28].dispatcher internalJobs 3605
scalar FogSequentialForward.fog[28].dispatcher externalJobs 21
scalar FogSequentialForward.fog[28].dispatcher remoteJobs 22
scalar FogSequentialForward.fog[28].dispatcher probeQueries 0
scalar FogSequentialForward.fog[28].dispatcher probeAnswers 0
scalar FogSequentialForward.fog[28].dispatcher droppedJobsSLA 0
scalar FogSequentialForward.fog[28].dispatcher jobs_class_1 3626
scalar FogSequentialForward.fog[28].dispatcher remoteJobs_class_1 22
scalar FogSequentialForward.fog[28].dispatcher localJobs_class_1 3604
scalar FogSequentialForward.fog[28].server[0] rho 0.55724519491196
scalar FogSequentialForward.fog[28].server[0] congestionRatio 0
scalar FogSequentialForward.fog[28].server[0] totalJobs 3604
scalar FogSequentialForward.fog[28].server[0] droppedJobsQueue 0
scalar FogSequentialForward.fog[28].server[0] droppedJobsTimout 0
scalar FogSequentialForward.fog[28].server[0] droppedJobsSLA 0
scalar FogSequentialForward.fog[28].server[0] droppedJobsTotal 0
scalar FogSequentialForward.fog[29].dispatcher localJobs 3593
scalar FogSequentialForward.fog[29].dispatcher internalJobs 3600
scalar FogSequentialForward.fog[29].dispatcher externalJobs 17
scalar FogSequentialForward.fog[29].dispatcher remoteJobs 24
scalar FogSequentialForward.fog[29].dispatcher probeQueries 0
scalar FogSequentialForward.fog[29].dispatcher probeAnswers 0
scalar FogSequentialForward.fog[29].dispatcher droppedJobsSLA 0
scalar FogSequentialForward.fog[29].dispatcher jobs_class_1 3617
scalar FogSequentialForward.fog[29].dispatcher remoteJobs_class_1 24
scalar FogSequentialForward.fog[29].dispatcher localJobs_class_1 3593
scalar FogSequentialForward.fog[29].server[0] rho 0.55549794435501
scalar FogSequentialForward.fog[29].server[0] congestionRatio 0
scalar FogSequentialForward.fog[29].server[0] totalJobs 3593
scalar FogSequentialForward.fog[29].server[0] droppedJobsQueue 0
scalar FogSequentialForward.fog[29].server[0] droppedJobsTimout 0
scalar FogSequentialForward.fog[29].server[0] droppedJobsSLA 0
scalar FogSequentialForward.fog[29].server[0] droppedJobsTotal 0
scalar FogSequentialForward.fog[30].dispatcher localJobs 3647
scalar FogSequentialForward.fog[30].dispatcher internalJobs 3638
scalar FogSequentialForward.fog[30].dispatcher externalJobs 26
scalar FogSequentialForward.fog[30].dispatcher remoteJobs 17
scalar FogSequentialForward.fog[30].dispatcher probeQueries 0
scalar FogSequentialForward.fog[30].dispatcher probeAnswers 0
scalar FogSequentialForward.fog[30].dispatcher droppedJobsSLA 0
scalar FogSequentialForward.fog[30].dispatcher jobs_class_1 3664
scalar FogSequentialForward.fog[30].dispatcher remoteJobs_class_1 17
scalar FogSequentialForward.fog[30].dispatcher localJobs_class_1 3647
scalar FogSequentialForward.fog[30].server[0] rho 0.56391453742981
scalar FogSequentialForward.fog[30].server[0] congestionRatio 0
scalar FogSequentialForward.fog[30].server[0] totalJobs 3647
scalar FogSequentialForward.fog[30].server[0] droppedJobsQueue 0
scalar FogSequentialForward.fog[30].server[0] droppedJobsTimout 0
scalar FogSequentialForward.fog[30].server[0] droppedJobsSLA 0
scalar FogSequentialForward.fog[30].server[0] droppedJobsTotal 0
scalar FogSequentialForward.fog[31].dispatcher localJobs 3622
scalar FogSequentialForward.fog[31].dispatcher internalJobs 3616
scalar FogSequentialForward.fog[31].dispatcher externalJobs 33
scalar FogSequentialForward.fog[31].dispatcher remoteJobs 27
scalar FogSequentialForward.fog[31].dispatcher probeQueries 0
scalar FogSequentialForward.fog[31].dispatcher probeAnswers 0
scalar FogSequentialForward.fog[31].dispatcher droppedJobsSLA 0
scalar FogSequentialForward.fog[31].dispatcher jobs_class_1 3649
scalar FogSequentialForward.fog[31].dispatcher remoteJobs_class_1 27
scalar FogSequentialForward.fog[31].dispatcher localJobs_class_1 3622
scalar FogSequentialForward.fog[31].server[0] rho 0.56006950139999
scalar FogSequentialForward.fog[31].server[0] congestionRatio 0
scalar FogSequentialForward.fog[31].server[0] totalJobs 3622
scalar FogSequentialForward.fog[31].server[0] droppedJobsQueue 0
scalar FogSequentialForward.fog[31].server[0] droppedJobsTimout 0
scalar FogSequentialForward.fog[31].server[0] droppedJobsSLA 0
scalar FogSequentialForward.fog[31].server[0] droppedJobsTotal 0
scalar FogSequentialForward.fog[32].dispatcher localJobs 3564
scalar FogSequentialForward.fog[32].dispatcher internalJobs 3578
scalar FogSequentialForward.fog[32].dispatcher externalJobs 11
scalar FogSequentialForward.fog[32].dispatcher remoteJobs 25
scalar FogSequentialForward.fog[32].dispatcher probeQueries 0
scalar FogSequentialForward.fog[32].dispatcher probeAnswers 0
scalar FogSequentialForward.fog[32].dispatcher droppedJobsSLA 0
scalar FogSequentialForward.fog[32].dispatcher jobs_class_1 3589
scalar FogSequentialForward.fog[32].dispatcher remoteJobs_class_1 25
scalar FogSequentialForward.fog[32].dispatcher localJobs_class_1 3564
scalar FogSequentialForward.fog[32].server[0] rho 0.55073928833008
scalar FogSequentialForward.fog[32].server[0] congestionRatio 0
scalar FogSequentialForward.fog[32].server[0] totalJobs 3564
scalar FogSequentialForward.fog[32].server[0] droppedJobsQueue 0
scalar FogSequentialForward.fog[32].server[0] droppedJobsTimout 0
scalar FogSequentialForward.fog[32].server[0] droppedJobsSLA 0
scalar FogSequentialForward.fog[32].server[0] droppedJobsTotal 0
scalar FogSequentialForward.fog[33].dispatcher localJobs 3501
scalar FogSequentialForward.fog[33].dispatcher internalJobs 3491
scalar FogSequentialForward.fog[33].dispatcher externalJobs 33
scalar FogSequentialForward.fog[33].dispatcher remoteJobs 23
scalar FogSequentialForward.fog[33].dispatcher probeQueries 0
scalar FogSequentialForward.fog[33].dispatcher probeAnswers 0
scalar FogSequentialForward.fog[33].dispatcher droppedJobsSLA 0
scalar FogSequentialForward.fog[33].dispatcher jobs_class_1 3524
scalar FogSequentialForward.fog[33].dispatcher remoteJobs_class_1 23
scalar FogSequentialForward.fog[33].dispatcher localJobs_class_1 3501
scalar FogSequentialForward.fog[33].server[0] rho 0.54143047332764
scalar FogSequentialForward.fog[33].server[0] congestionRatio 0
scalar FogSequentialForward.fog[33].server[0] totalJobs 3501
scalar FogSequentialForward.fog[33].server[0] droppedJobsQueue 0
scalar FogSequentialForward.fog[33].server[0] droppedJobsTimout 0
scalar FogSequentialForward.fog[33].server[0] droppedJobsSLA 0
scalar FogSequentialForward.fog[33].server[0] droppedJobsTotal 0
scalar FogSequentialForward.fog[34].dispatcher localJobs 3702
scalar FogSequentialForward.fog[34].dispatcher internalJobs 3728
scalar FogSequentialForward.fog[34].dispatcher externalJobs 23
scalar FogSequentialForward.fog[34].dispatcher remoteJobs 49
scalar FogSequentialForward.fog[34].dispatcher probeQueries 0
scalar FogSequentialForward.fog[34].dispatcher probeAnswers 0
scalar FogSequentialForward.fog[34].dispatcher droppedJobsSLA 0
scalar FogSequentialForward.fog[34].dispatcher jobs_class_1 3751
scalar FogSequentialForward.fog[34].dispatcher remoteJobs_class_1 49
scalar FogSequentialForward.fog[34].dispatcher localJobs_class_1 3702
scalar FogSequentialForward.fog[34].server[0] rho 0.57232826948166
scalar FogSequentialForward.fog[34].server[0] congestionRatio 0
scalar FogSequentialForward.fog[34].server[0] totalJobs 3702
scalar FogSequentialForward.fog[34].server[0] droppedJobsQueue 0
scalar FogSequentialForward.fog[34].server[0] droppedJobsTimout 0
scalar FogSequentialForward.fog[34].server[0] droppedJobsSLA 0
scalar FogSequentialForward.fog[34].server[0] droppedJobsTotal 0
scalar FogSequentialForward.fog[35].dispatcher localJobs 3532
scalar FogSequentialForward.fog[35].dispatcher internalJobs 3536
scalar FogSequentialForward.fog[35].dispatcher externalJobs 24
scalar FogSequentialForward.fog[35].dispatcher remoteJobs 28
scalar FogSequentialForward.fog[35].dispatcher probeQueries 0
scalar FogSequentialForward.fog[35].dispatcher probeAnswers 0
scalar FogSequentialForward.fog[35].dispatcher droppedJobsSLA 0
scalar FogSequentialForward.fog[35].dispatcher jobs_class_1 3560
scalar FogSequentialForward.fog[35].dispatcher remoteJobs_class_1 28
scalar FogSequentialForward.fog[35].dispatcher localJobs_class_1 3532
scalar FogSequentialForward.fog[35].server[0] rho 0.5459823012352
scalar FogSequentialForward.fog[35].server[0] congestionRatio 0
scalar FogSequentialForward.fog[35].server[0] totalJobs 3532
scalar FogSequentialForward.fog[35].server[0] droppedJobsQueue 0
scalar FogSequentialForward.fog[35].server[0] droppedJobsTimout 0
scalar FogSequentialForward.fog[35].server[0] droppedJobsSLA 0
scalar FogSequentialForward.fog[35].server[0] droppedJobsTotal 0
scalar FogSequentialForward.fog[36].dispatcher localJobs 3654
scalar FogSequentialForward.fog[36].dispatcher internalJobs 3650
scalar FogSequentialForward.fog[36].dispatcher externalJobs 28
scalar FogSequentialForward.fog[36].dispatcher remoteJobs 24
scalar FogSequentialForward.fog[36].dispatcher probeQueries 0
scalar FogSequentialForward.fog[36].dispatcher probeAnswers 0
scalar FogSequentialForward.fog[36].dispatcher droppedJobsSLA 0
scalar FogSequentialForward.fog[36].dispatcher jobs_class_1 3678
scalar FogSequentialForward.fog[36].dispatcher remoteJobs_class_1 24
scalar FogSequentialForward.fog[36].dispatcher localJobs_class_1 3654
scalar FogSequentialForward.fog[36].server[0] rho 0.56509673595428
scalar FogSequentialForward.fog[36].server[0] congestionRatio 0
scalar FogSequentialForward.fog[36].server[0] totalJobs 3654
scalar FogSequentialForward.fog[36].server[0] droppedJobsQueue 0
scalar FogSequentialForward.fog[36].server[0] droppedJobsTimout 0
scalar FogSequentialForward.fog[36].server[0] droppedJobsSLA 0
scalar FogSequentialForward.fog[36].server[0] droppedJobsTotal 0
scalar FogSequentialForward.fog[37].dispatcher localJobs 3683
scalar FogSequentialForward.fog[37].dispatcher internalJobs 3704
scalar FogSequentialForward.fog[37].dispatcher externalJobs 25
scalar FogSequentialForward.fog[37].dispatcher remoteJobs 46
scalar FogSequentialForward.fog[37].dispatcher probeQueries 0
scalar FogSequentialForward.fog[37].dispatcher probeAnswers 0
scalar FogSequentialForward.fog[37].dispatcher droppedJobsSLA 0
scalar FogSequentialForward.fog[37].dispatcher jobs_class_1 3729
scalar FogSequentialForward.fog[37].dispatcher remoteJobs_class_1 46
scalar FogSequentialForward.fog[37].dispatcher localJobs_class_1 3683
scalar FogSequentialForward.fog[37].server[0] rho 0.56969702243805
scalar FogSequentialForward.fog[37].server[0] congestionRatio 0
scalar FogSequentialForward.fog[37].server[0] totalJobs 3683
scalar FogSequentialForward.fog[37].server[0] droppedJobsQueue 0
scalar FogSequentialForward.fog[37].server[0] droppedJobsTimout 0
scalar FogSequentialForward.fog[37].server[0] droppedJobsSLA 0
scalar FogSequentialForward.fog[37].server[0] droppedJobsTotal 0
scalar FogSequentialForward.fog[38].dispatcher localJobs 3676
scalar FogSequentialForward.fog[38].dispatcher internalJobs 3676
scalar FogSequentialForward.fog[38].dispatcher externalJobs 25
scalar FogSequentialForward.fog[38].dispatcher remoteJobs 25
scalar FogSequentialForward.fog[38].dispatcher probeQueries 0
scalar FogSequentialForward.fog[38].dispatcher probeAnswers 0
scalar FogSequentialForward.fog[38].dispatcher droppedJobsSLA 0
scalar FogSequentialForward.fog[38].dispatcher jobs_class_1 3701
scalar FogSequentialForward.fog[38].dispatcher remoteJobs_class_1 25
scalar FogSequentialForward.fog[38].dispatcher localJobs_class_1 3676
scalar FogSequentialForward.fog[38].server[0] rho 0.56867647171021
scalar FogSequentialForward.fog[38].server[0] congestionRatio 0
scalar FogSequentialForward.fog[38].server[0] totalJobs 3676
scalar FogSequentialForward.fog[38].server[0] droppedJobsQueue 0
scalar FogSequentialForward.fog[38].server[0] droppedJobsTimout 0
scalar FogSequentialForward.fog[38].server[0] droppedJobsSLA 0
scalar FogSequentialForward.fog[38].server[0] droppedJobsTotal 0
scalar FogSequentialForward.fog[39].dispatcher localJobs 3654
scalar FogSequentialForward.fog[39].dispatcher internalJobs 3662
scalar FogSequentialForward.fog[39].dispatcher externalJobs 18
scalar FogSequentialForward.fog[39].dispatcher remoteJobs 26
scalar FogSequentialForward.fog[39].dispatcher probeQueries 0
scalar FogSequentialForward.fog[39].dispatcher probeAnswers 0
scalar FogSequentialForward.fog[39].dispatcher droppedJobsSLA 0
scalar FogSequentialForward.fog[39].dispatcher jobs_class_1 3680
scalar FogSequentialForward.fog[39].dispatcher remoteJobs_class_1 26
scalar FogSequentialForward.fog[39].dispatcher localJobs_class_1 3654
scalar FogSequentialForward.fog[39].server[0] rho 0.56484258174896
scalar FogSequentialForward.fog[39].server[0] congestionRatio 0
scalar FogSequentialForward.fog[39].server[0] totalJobs 3654
scalar FogSequentialForward.fog[39].server[0] droppedJobsQueue 0
scalar FogSequentialForward.fog[39].server[0] droppedJobsTimout 0
scalar FogSequentialForward.fog[39].server[0] droppedJobsSLA 0
scalar FogSequentialForward.fog[39].server[0] droppedJobsTotal 0
scalar FogSequentialForward.fog[40].dispatcher localJobs 3500
scalar FogSequentialForward.fog[40].dispatcher internalJobs 3503
scalar FogSequentialForward.fog[40].dispatcher externalJobs 17
scalar FogSequentialForward.fog[40].dispatcher remoteJobs 20
scalar FogSequentialForward.fog[40].dispatcher probeQueries 0
scalar FogSequentialForward.fog[40].dispatcher probeAnswers 0
scalar FogSequentialForward.fog[40].dispatcher droppedJobsSLA 0
scalar FogSequentialForward.fog[40].dispatcher jobs_class_1 3520
scalar FogSequentialForward.fog[40].dispatcher remoteJobs_class_1 20
scalar FogSequentialForward.fog[40].dispatcher localJobs_class_1 3500
scalar FogSequentialForward.fog[40].server[0] rho 0.54109132289886
scalar FogSequentialForward.fog[40].server[0] congestionRatio 0
scalar FogSequentialForward.fog[40].server[0] totalJobs 3500
scalar FogSequentialForward.fog[40].server[0] droppedJobsQueue 0
scalar FogSequentialForward.fog[40].server[0] droppedJobsTimout 0
scalar FogSequentialForward.fog[40].server[0] droppedJobsSLA 0
scalar FogSequentialForward.fog[40].server[0] droppedJobsTotal 0
scalar FogSequentialForward.fog[41].dispatcher localJobs 3603
scalar FogSequentialForward.fog[41].dispatcher internalJobs 3585
scalar FogSequentialForward.fog[41].dispatcher externalJobs 32
scalar FogSequentialForward.fog[41].dispatcher remoteJobs 14
scalar FogSequentialForward.fog[41].dispatcher probeQueries 0
scalar FogSequentialForward.fog[41].dispatcher probeAnswers 0
scalar FogSequentialForward.fog[41].dispatcher droppedJobsSLA 0
scalar FogSequentialForward.fog[41].dispatcher jobs_class_1 3617
scalar FogSequentialForward.fog[41].dispatcher remoteJobs_class_1 14
scalar FogSequentialForward.fog[41].dispatcher localJobs_class_1 3603
scalar FogSequentialForward.fog[41].server[0] rho 0.55740827322006
scalar FogSequentialForward.fog[41].server[0] congestionRatio 0
scalar FogSequentialForward.fog[41].server[0] totalJobs 3603
scalar FogSequentialForward.fog[41].server[0] droppedJobsQueue 0
scalar FogSequentialForward.fog[41].server[0] droppedJobsTimout 0
scalar FogSequentialForward.fog[41].server[0] droppedJobsSLA 0
scalar FogSequentialForward.fog[41].server[0] droppedJobsTotal 0
scalar FogSequentialForward.fog[42].dispatcher localJobs 3596
scalar FogSequentialForward.fog[42].dispatcher internalJobs 3602
scalar FogSequentialForward.fog[42].dispatcher externalJobs 25
scalar FogSequentialForward.fog[42].dispatcher remoteJobs 31
scalar FogSequentialForward.fog[42].dispatcher probeQueries 0
scalar FogSequentialForward.fog[42].dispatcher probeAnswers 0
scalar FogSequentialForward.fog[42].dispatcher droppedJobsSLA 0
scalar FogSequentialForward.fog[42].dispatcher jobs_class_1 3627
scalar FogSequentialForward.fog[42].dispatcher remoteJobs_class_1 31
scalar FogSequentialForward.fog[42].dispatcher localJobs_class_1 3596
scalar FogSequentialForward.fog[42].server[0] rho 0.55620563030243
scalar FogSequentialForward.fog[42].server[0] congestionRatio 0
scalar FogSequentialForward.fog[42].server[0] totalJobs 3596
scalar FogSequentialForward.fog[42].server[0] droppedJobsQueue 0
scalar FogSequentialForward.fog[42].server[0] droppedJobsTimout 0
scalar FogSequentialForward.fog[42].server[0] droppedJobsSLA 0
scalar FogSequentialForward.fog[42].server[0] droppedJobsTotal 0
scalar FogSequentialForward.fog[43].dispatcher localJobs 3540
scalar FogSequentialForward.fog[43].dispatcher internalJobs 3537
scalar FogSequentialForward.fog[43].dispatcher externalJobs 36
scalar FogSequentialForward.fog[43].dispatcher remoteJobs 33
scalar FogSequentialForward.fog[43].dispatcher probeQueries 0
scalar FogSequentialForward.fog[43].dispatcher probeAnswers 0
scalar FogSequentialForward.fog[43].dispatcher droppedJobsSLA 0
scalar FogSequentialForward.fog[43].dispatcher jobs_class_1 3573
scalar FogSequentialForward.fog[43].dispatcher remoteJobs_class_1 33
scalar FogSequentialForward.fog[43].dispatcher localJobs_class_1 3540
scalar FogSequentialForward.fog[43].server[0] rho 0.54731029272079
scalar FogSequentialForward.fog[43].server[0] congestionRatio 0
scalar FogSequentialForward.fog[43].server[0] totalJobs 3540
scalar FogSequentialForward.fog[43].server[0] droppedJobsQueue 0
scalar FogSequentialForward.fog[43].server[0] droppedJobsTimout 0
scalar FogSequentialForward.fog[43].server[0] droppedJobsSLA 0
scalar FogSequentialForward.fog[43].server[0] droppedJobsTotal 0
scalar FogSequentialForward.fog[44].dispatcher localJobs 3693
scalar FogSequentialForward.fog[44].dispatcher internalJobs 3691
scalar FogSequentialForward.fog[44].dispatcher externalJobs 31
scalar FogSequentialForward.fog[44].dispatcher remoteJobs 29
scalar FogSequentialForward.fog[44].dispatcher probeQueries 0
scalar FogSequentialForward.fog[44].dispatcher probeAnswers 0
scalar FogSequentialForward.fog[44].dispatcher droppedJobsSLA 0
scalar FogSequentialForward.fog[44].dispatcher jobs_class_1 3722
scalar FogSequentialForward.fog[44].dispatcher remoteJobs_class_1 29
scalar FogSequentialForward.fog[44].dispatcher localJobs_class_1 3693
scalar FogSequentialForward.fog[44].server[0] rho 0.57055270671844
scalar FogSequentialForward.fog[44].server[0] congestionRatio 0
scalar FogSequentialForward.fog[44].server[0] totalJobs 3693
scalar FogSequentialForward.fog[44].server[0] droppedJobsQueue 0
scalar FogSequentialForward.fog[44].server[0] droppedJobsTimout 0
scalar FogSequentialForward.fog[44].server[0] droppedJobsSLA 0
scalar FogSequentialForward.fog[44].server[0] droppedJobsTotal 0
scalar FogSequentialForward.fog[45].dispatcher localJobs 3539
scalar FogSequentialForward.fog[45].dispatcher internalJobs 3532
scalar FogSequentialForward.fog[45].dispatcher externalJobs 23
scalar FogSequentialForward.fog[45].dispatcher remoteJobs 16
scalar FogSequentialForward.fog[45].dispatcher probeQueries 0
scalar FogSequentialForward.fog[45].dispatcher probeAnswers 0
scalar FogSequentialForward.fog[45].dispatcher droppedJobsSLA 0
scalar FogSequentialForward.fog[45].dispatcher jobs_class_1 3555
scalar FogSequentialForward.fog[45].dispatcher remoteJobs_class_1 16
scalar FogSequentialForward.fog[45].dispatcher localJobs_class_1 3539
scalar FogSequentialForward.fog[45].server[0] rho 0.54700380563736
scalar FogSequentialForward.fog[45].server[0] congestionRatio 0
scalar FogSequentialForward.fog[45].server[0] totalJobs 3539
scalar FogSequentialForward.fog[45].server[0] droppedJobsQueue 0
scalar FogSequentialForward.fog[45].server[0] droppedJobsTimout 0
scalar FogSequentialForward.fog[45].server[0] droppedJobsSLA 0
scalar FogSequentialForward.fog[45].server[0] droppedJobsTotal 0
scalar FogSequentialForward.fog[46].dispatcher localJobs 3594
scalar FogSequentialForward.fog[46].dispatcher internalJobs 3593
scalar FogSequentialForward.fog[46].dispatcher externalJobs 34
scalar FogSequentialForward.fog[46].dispatcher remoteJobs 33
scalar FogSequentialForward.fog[46].dispatcher probeQueries 0
scalar FogSequentialForward.fog[46].dispatcher probeAnswers 0
scalar FogSequentialForward.fog[46].dispatcher droppedJobsSLA 0
scalar FogSequentialForward.fog[46].dispatcher jobs_class_1 3627
scalar FogSequentialForward.fog[46].dispatcher remoteJobs_class_1 33
scalar FogSequentialForward.fog[46].dispatcher localJobs_class_1 3594
scalar FogSequentialForward.fog[46].server[0] rho 0.55579107999802
scalar FogSequentialForward.fog[46].server[0] congestionRatio 0
scalar FogSequentialForward.fog[46].server[0] totalJobs 3594
scalar FogSequentialForward.fog[46].server[0] droppedJobsQueue 0
scalar FogSequentialForward.fog[46].server[0] droppedJobsTimout 0
scalar FogSequentialForward.fog[46].server[0] droppedJobsSLA 0
scalar FogSequentialForward.fog[46].server[0] droppedJobsTotal 0
scalar FogSequentialForward.fog[47].dispatcher localJobs 3670
scalar FogSequentialForward.fog[47].dispatcher internalJobs 3664
scalar FogSequentialForward.fog[47].dispatcher externalJobs 27
scalar FogSequentialForward.fog[47].dispatcher remoteJobs 21
scalar FogSequentialForward.fog[47].dispatcher probeQueries 0
scalar FogSequentialForward.fog[47].dispatcher probeAnswers 0
scalar FogSequentialForward.fog[47].dispatcher droppedJobsSLA 0
scalar FogSequentialForward.fog[47].dispatcher jobs_class_1 3691
scalar FogSequentialForward.fog[47].dispatcher remoteJobs_class_1 21
scalar FogSequentialForward.fog[47].dispatcher localJobs_class_1 3670
scalar FogSequentialForward.fog[47].server[0] rho 0.56732964515686
scalar FogSequentialForward.fog[47].server[0] congestionRatio 0
scalar FogSequentialForward.fog[47].server[0] totalJobs 3670
scalar FogSequentialForward.fog[47].server[0] droppedJobsQueue 0
scalar FogSequentialForward.fog[47].server[0] droppedJobsTimout 0
scalar FogSequentialForward.fog[47].server[0] droppedJobsSLA 0
scalar FogSequentialForward.fog[47].server[0] droppedJobsTotal 0
scalar FogSequentialForward.fog[48].dispatcher localJobs 3618
scalar FogSequentialForward.fog[48].dispatcher internalJobs 3625
scalar FogSequentialForward.fog[48].dispatcher externalJobs 18
scalar FogSequentialForward.fog[48].dispatcher remoteJobs 25
scalar FogSequentialForward.fog[48].dispatcher probeQueries 0
scalar FogSequentialForward.fog[48].dispatcher probeAnswers 0
scalar FogSequentialForward.fog[48].dispatcher droppedJobsSLA 0
scalar FogSequentialForward.fog[48].dispatcher jobs_class_1 3643
scalar FogSequentialForward.fog[48].dispatcher remoteJobs_class_1 25
scalar FogSequentialForward.fog[48].dispatcher localJobs_class_1 3618
scalar FogSequentialForward.fog[48].server[0] rho 0.55953961610794
scalar FogSequentialForward.fog[48].server[0] congestionRatio 0
scalar FogSequentialForward.fog[48].server[0] totalJobs 3618
scalar FogSequentialForward.fog[48].server[0] droppedJobsQueue 0
scalar FogSequentialForward.fog[48].server[0] droppedJobsTimout 0
scalar FogSequentialForward.fog[48].server[0] droppedJobsSLA 0
scalar FogSequentialForward.fog[48].server[0] droppedJobsTotal 0
scalar FogSequentialForward.fog[49].dispatcher localJobs 3592
scalar FogSequentialForward.fog[49].dispatcher internalJobs 3579
scalar FogSequentialForward.fog[49].dispatcher externalJobs 27
scalar FogSequentialForward.fog[49].dispatcher remoteJobs 14
scalar FogSequentialForward.fog[49].dispatcher probeQueries 0
scalar FogSequentialForward.fog[49].dispatcher probeAnswers 0
scalar FogSequentialForward.fog[49].dispatcher droppedJobsSLA 0
scalar FogSequentialForward.fog[49].dispatcher jobs_class_1 3606
scalar FogSequentialForward.fog[49].dispatcher remoteJobs_class_1 14
scalar FogSequentialForward.fog[49].dispatcher localJobs_class_1 3592
scalar FogSequentialForward.fog[49].server[0] rho 0.55564367771149
scalar FogSequentialForward.fog[49].server[0] congestionRatio 0
scalar FogSequentialForward.fog[49].server[0] totalJobs 3592
scalar FogSequentialForward.fog[49].server[0] droppedJobsQueue 0
scalar FogSequentialForward.fog[49].server[0] droppedJobsTimout 0
scalar FogSequentialForward.fog[49].server[0] droppedJobsSLA 0
scalar FogSequentialForward.fog[49].server[0] droppedJobsTotal 0
scalar FogSequentialForward.fog[50].dispatcher localJobs 3593
scalar FogSequentialForward.fog[50].dispatcher internalJobs 3601
scalar FogSequentialForward.fog[50].dispatcher externalJobs 20
scalar FogSequentialForward.fog[50].dispatcher remoteJobs 28
scalar FogSequentialForward.fog[50].dispatcher probeQueries 0
scalar FogSequentialForward.fog[50].dispatcher probeAnswers 0
scalar FogSequentialForward.fog[50].dispatcher droppedJobsSLA 0
scalar FogSequentialForward.fog[50].dispatcher jobs_class_1 3621
scalar FogSequentialForward.fog[50].dispatcher remoteJobs_class_1 28
scalar FogSequentialForward.fog[50].dispatcher localJobs_class_1 3593
scalar FogSequentialForward.fog[50].server[0] rho 0.55561643838882
scalar FogSequentialForward.fog[50].server[0] congestionRatio 0
scalar FogSequentialForward.fog[50].server[0] totalJobs 3593
scalar FogSequentialForward.fog[50].server[0] droppedJobsQueue 0
scalar FogSequentialForward.fog[50].server[0] droppedJobsTimout 0
scalar FogSequentialForward.fog[50].server[0] droppedJobsSLA 0
scalar FogSequentialForward.fog[50].server[0] droppedJobsTotal 0
scalar FogSequentialForward.fog[51].dispatcher localJobs 3604
scalar FogSequentialForward.fog[51].dispatcher internalJobs 3598
scalar FogSequentialForward.fog[51].dispatcher externalJobs 27
scalar FogSequentialForward.fog[51].dispatcher remoteJobs 21
scalar FogSequentialForward.fog[51].dispatcher probeQueries 0
scalar FogSequentialForward.fog[51].dispatcher probeAnswers 0
scalar FogSequentialForward.fog[51].dispatcher droppedJobsSLA 0
scalar FogSequentialForward.fog[51].dispatcher jobs_class_1 3625
scalar FogSequentialForward.fog[51].dispatcher remoteJobs_class_1 21
scalar FogSequentialForward.fog[51].dispatcher localJobs_class_1 3604
scalar FogSequentialForward.fog[51].server[0] rho 0.55760192871094
scalar FogSequentialForward.fog[51].server[0] congestionRatio 0
scalar FogSequentialForward.fog[51].server[0] totalJobs 3604
scalar FogSequentialForward.fog[51].server[0] droppedJobsQueue 0
scalar FogSequentialForward.fog[51].server[0] droppedJobsTimout 0
scalar FogSequentialForward.fog[51].server[0] droppedJobsSLA 0
scalar FogSequentialForward.fog[51].server[0] droppedJobsTotal 0
scalar FogSequentialForward.fog[52].dispatcher localJobs 3564
scalar FogSequentialForward.fog[52].dispatcher internalJobs 3554
scalar FogSequentialForward.fog[52].dispatcher externalJobs 23
scalar FogSequentialForward.fog[52].dispatcher remoteJobs 13
scalar FogSequentialForward.fog[52].dispatcher probeQueries 0
scalar FogSequentialForward.fog[52].dispatcher probeAnswers 0
scalar FogSequentialForward.fog[52].dispatcher droppedJobsSLA 0
scalar FogSequentialForward.fog[52].dispatcher jobs_class_1 3577
scalar FogSequentialForward.fog[52].dispatcher remoteJobs_class_1 13
scalar FogSequentialForward.fog[52].dispatcher localJobs_class_1 3564
scalar FogSequentialForward.fog[52].server[0] rho 0.55118298530579
scalar FogSequentialForward.fog[52].server[0] congestionRatio 0
scalar FogSequentialForward.fog[52].server[0] totalJobs 3564
scalar FogSequentialForward.fog[52].server[0] droppedJobsQueue 0
scalar FogSequentialForward.fog[52].server[0] droppedJobsTimout 0
scalar FogSequentialForward.fog[52].server[0] droppedJobsSLA 0
scalar FogSequentialForward.fog[52].server[0] droppedJobsTotal 0
scalar FogSequentialForward.fog[53].dispatcher localJobs 3518
scalar FogSequentialForward.fog[53].dispatcher internalJobs 3522
scalar FogSequentialForward.fog[53].dispatcher externalJobs 17
scalar FogSequentialForward.fog[53].dispatcher remoteJobs 21
scalar FogSequentialForward.fog[53].dispatcher probeQueries 0
scalar FogSequentialForward.fog[53].dispatcher probeAnswers 0
scalar FogSequentialForward.fog[53].dispatcher droppedJobsSLA 0
scalar FogSequentialForward.fog[53].dispatcher jobs_class_1 3539
scalar FogSequentialForward.fog[53].dispatcher remoteJobs_class_1 21
scalar FogSequentialForward.fog[53].dispatcher localJobs_class_1 3518
scalar FogSequentialForward.fog[53].server[0] rho 0.54389816522598
scalar FogSequentialForward.fog[53].server[0] congestionRatio 0
scalar FogSequentialForward.fog[53].server[0] totalJobs 3518
scalar FogSequentialForward.fog[53].server[0] droppedJobsQueue 0
scalar FogSequentialForward.fog[53].server[0] droppedJobsTimout 0
scalar FogSequentialForward.fog[53].server[0] droppedJobsSLA 0
scalar FogSequentialForward.fog[53].server[0] droppedJobsTotal 0
scalar FogSequentialForward.fog[54].dispatcher localJobs 3518
scalar FogSequentialForward.fog[54].dispatcher internalJobs 3519
scalar FogSequentialForward.fog[54].dispatcher externalJobs 29
scalar FogSequentialForward.fog[54].dispatcher remoteJobs 30
scalar FogSequentialForward.fog[54].dispatcher probeQueries 0
scalar FogSequentialForward.fog[54].dispatcher probeAnswers 0
scalar FogSequentialForward.fog[54].dispatcher droppedJobsSLA 0
scalar FogSequentialForward.fog[54].dispatcher jobs_class_1 3548
scalar FogSequentialForward.fog[54].dispatcher remoteJobs_class_1 30
scalar FogSequentialForward.fog[54].dispatcher localJobs_class_1 3518
scalar FogSequentialForward.fog[54].server[0] rho 0.54386448860168
scalar FogSequentialForward.fog[54].server[0] congestionRatio 0
scalar FogSequentialForward.fog[54].server[0] totalJobs 3518
scalar FogSequentialForward.fog[54].server[0] droppedJobsQueue 0
scalar FogSequentialForward.fog[54].server[0] droppedJobsTimout 0
scalar FogSequentialForward.fog[54].server[0] droppedJobsSLA 0
scalar FogSequentialForward.fog[54].server[0] droppedJobsTotal 0
scalar FogSequentialForward.fog[55].dispatcher localJobs 3606
scalar FogSequentialForward.fog[55].dispatcher internalJobs 3603
scalar FogSequentialForward.fog[55].dispatcher externalJobs 37
scalar FogSequentialForward.fog[55].dispatcher remoteJobs 34
scalar FogSequentialForward.fog[55].dispatcher probeQueries 0
scalar FogSequentialForward.fog[55].dispatcher probeAnswers 0
scalar FogSequentialForward.fog[55].dispatcher droppedJobsSLA 0
scalar FogSequentialForward.fog[55].dispatcher jobs_class_1 3640
scalar FogSequentialForward.fog[55].dispatcher remoteJobs_class_1 34
scalar FogSequentialForward.fog[55].dispatcher localJobs_class_1 3606
scalar FogSequentialForward.fog[55].server[0] rho 0.55771619081497
scalar FogSequentialForward.fog[55].server[0] congestionRatio 0
scalar FogSequentialForward.fog[55].server[0] totalJobs 3606
scalar FogSequentialForward.fog[55].server[0] droppedJobsQueue 0
scalar FogSequentialForward.fog[55].server[0] droppedJobsTimout 0
scalar FogSequentialForward.fog[55].server[0] droppedJobsSLA 0
scalar FogSequentialForward.fog[55].server[0] droppedJobsTotal 0
scalar FogSequentialForward.fog[56].dispatcher localJobs 3563
scalar FogSequentialForward.fog[56].dispatcher internalJobs 3556
scalar FogSequentialForward.fog[56].dispatcher externalJobs 31
scalar FogSequentialForward.fog[56].dispatcher remoteJobs 24
scalar FogSequentialForward.fog[56].dispatcher probeQueries 0
scalar FogSequentialForward.fog[56].dispatcher probeAnswers 0
scalar FogSequentialForward.fog[56].dispatcher droppedJobsSLA 0
scalar FogSequentialForward.fog[56].dispatcher jobs_class_1 3587
scalar FogSequentialForward.fog[56].dispatcher remoteJobs_class_1 24
scalar FogSequentialForward.fog[56].dispatcher localJobs_class_1 3563
scalar FogSequentialForward.fog[56].server[0] rho 0.55070072412491
scalar FogSequentialForward.fog[56].server[0] congestionRatio 0
scalar FogSequentialForward.fog[56].server[0] totalJobs 3563
scalar FogSequentialForward.fog[56].server[0] droppedJobsQueue 0
scalar FogSequentialForward.fog[56].server[0] droppedJobsTimout 0
scalar FogSequentialForward.fog[56].server[0] droppedJobsSLA 0
scalar FogSequentialForward.fog[56].server[0] droppedJobsTotal 0
scalar FogSequentialForward.fog[57].dispatcher localJobs 3629
scalar FogSequentialForward.fog[57].dispatcher internalJobs 3622
scalar FogSequentialForward.fog[57].dispatcher externalJobs 31
scalar FogSequentialForward.fog[57].dispatcher remoteJobs 24
scalar FogSequentialForward.fog[57].dispatcher probeQueries 0
scalar FogSequentialForward.fog[57].dispatcher probeAnswers 0
scalar FogSequentialForward.fog[57].dispatcher droppedJobsSLA 0
scalar FogSequentialForward.fog[57].dispatcher jobs_class_1 3653
scalar FogSequentialForward.fog[57].dispatcher remoteJobs_class_1 24
scalar FogSequentialForward.fog[57].dispatcher localJobs_class_1 3629
scalar FogSequentialForward.fog[57].server[0] rho 0.56115037202835
scalar FogSequentialForward.fog[57].server[0] congestionRatio 0
scalar FogSequentialForward.fog[57].server[0] totalJobs 3629
scalar FogSequentialForward.fog[57].server[0] droppedJobsQueue 0
scalar FogSequentialForward.fog[57].server[0] droppedJobsTimout 0
scalar FogSequentialForward.fog[57].server[0] droppedJobsSLA 0
scalar FogSequentialForward.fog[57].server[0] droppedJobsTotal 0
scalar FogSequentialForward.fog[58].dispatcher localJobs 3637
scalar FogSequentialForward.fog[58].dispatcher internalJobs 3647
scalar FogSequentialForward.fog[58].dispatcher externalJobs 26
scalar FogSequentialForward.fog[58].dispatcher remoteJobs 36
scalar FogSequentialForward.fog[58].dispatcher probeQueries 0
scalar FogSequentialForward.fog[58].dispatcher probeAnswers 0
scalar FogSequentialForward.fog[58].dispatcher droppedJobsSLA 0
scalar FogSequentialForward.fog[58].dispatcher jobs_class_1 3673
scalar FogSequentialForward.fog[58].dispatcher remoteJobs_class_1 36
scalar FogSequentialForward.fog[58].dispatcher localJobs_class_1 3637
scalar FogSequentialForward.fog[58].server[0] rho 0.5623579621315
scalar FogSequentialForward.fog[58].server[0] congestionRatio 0
scalar FogSequentialForward.fog[58].server[0] totalJobs 3637
scalar FogSequentialForward.fog[58].server[0] droppedJobsQueue 0
scalar FogSequentialForward.fog[58].server[0] droppedJobsTimout 0
scalar FogSequentialForward.fog[58].server[0] droppedJobsSLA 0
scalar FogSequentialForward.fog[58].server[0] droppedJobsTotal 0
scalar FogSequentialForward.fog[59].dispatcher localJobs 3598
scalar FogSequentialForward.fog[59].dispatcher internalJobs 3588
scalar FogSequentialForward.fog[59].dispatcher externalJobs 35
scalar FogSequentialForward.fog[59].dispatcher remoteJobs 25
scalar FogSequentialForward.fog[59].dispatcher probeQueries 0
scalar FogSequentialForward.fog[59].dispatcher probeAnswers 0
scalar FogSequentialForward.fog[59].dispatcher droppedJobsSLA 0
scalar FogSequentialForward.fog[59].dispatcher jobs_class_1 3623
scalar FogSequentialForward.fog[59].dispatcher remoteJobs_class_1 25
scalar FogSequentialForward.fog[59].dispatcher localJobs_class_1 3598
scalar FogSequentialForward.fog[59].server[0] rho 0.55693560838699
scalar FogSequentialForward.fog[59].server[0] congestionRatio 0
scalar FogSequentialForward.fog[59].server[0] totalJobs 3598
scalar FogSequentialForward.fog[59].server[0] droppedJobsQueue 0
scalar FogSequentialForward.fog[59].server[0] droppedJobsTimout 0
scalar FogSequentialForward.fog[59].server[0] droppedJobsSLA 0
scalar FogSequentialForward.fog[59].server[0] droppedJobsTotal 0
scalar FogSequentialForward.fog[60].dispatcher localJobs 3502
scalar FogSequentialForward.fog[60].dispatcher internalJobs 3501
scalar FogSequentialForward.fog[60].dispatcher externalJobs 19
scalar FogSequentialForward.fog[60].dispatcher remoteJobs 18
scalar FogSequentialForward.fog[60].dispatcher probeQueries 0
scalar FogSequentialForward.fog[60].dispatcher probeAnswers 0
scalar FogSequentialForward.fog[60].dispatcher droppedJobsSLA 0
scalar FogSequentialForward.fog[60].dispatcher jobs_class_1 3520
scalar FogSequentialForward.fog[60].dispatcher remoteJobs_class_1 18
scalar FogSequentialForward.fog[60].dispatcher localJobs_class_1 3502
scalar FogSequentialForward.fog[60].server[0] rho 0.54169547557831
scalar FogSequentialForward.fog[60].server[0] congestionRatio 0
scalar FogSequentialForward.fog[60].server[0] totalJobs 3502
scalar FogSequentialForward.fog[60].server[0] droppedJobsQueue 0
scalar FogSequentialForward.fog[60].server[0] droppedJobsTimout 0
scalar FogSequentialForward.fog[60].server[0] droppedJobsSLA 0
scalar FogSequentialForward.fog[60].server[0] droppedJobsTotal 0
scalar FogSequentialForward.fog[61].dispatcher localJobs 3643
scalar FogSequentialForward.fog[61].dispatcher internalJobs 3649
scalar FogSequentialForward.fog[61].dispatcher externalJobs 23
scalar FogSequentialForward.fog[61].dispatcher remoteJobs 29
scalar FogSequentialForward.fog[61].dispatcher probeQueries 0
scalar FogSequentialForward.fog[61].dispatcher probeAnswers 0
scalar FogSequentialForward.fog[61].dispatcher droppedJobsSLA 0
scalar FogSequentialForward.fog[61].dispatcher jobs_class_1 3672
scalar FogSequentialForward.fog[61].dispatcher remoteJobs_class_1 29
scalar FogSequentialForward.fog[61].dispatcher localJobs_class_1 3643
scalar FogSequentialForward.fog[61].server[0] rho 0.56339317560196
scalar FogSequentialForward.fog[61].server[0] congestionRatio 0
scalar FogSequentialForward.fog[61].server[0] totalJobs 3643
scalar FogSequentialForward.fog[61].server[0] droppedJobsQueue 0
scalar FogSequentialForward.fog[61].server[0] droppedJobsTimout 0
scalar FogSequentialForward.fog[61].server[0] droppedJobsSLA 0
scalar FogSequentialForward.fog[61].server[0] droppedJobsTotal 0
scalar FogSequentialForward.fog[62].dispatcher localJobs 3570
scalar FogSequentialForward.fog[62].dispatcher internalJobs 3572
scalar FogSequentialForward.fog[62].dispatcher externalJobs 21
scalar FogSequentialForward.fog[62].dispatcher remoteJobs 23
scalar FogSequentialForward.fog[62].dispatcher probeQueries 0
scalar FogSequentialForward.fog[62].dispatcher probeAnswers 0
scalar FogSequentialForward.fog[62].dispatcher droppedJobsSLA 0
scalar FogSequentialForward.fog[62].dispatcher jobs_class_1 3593
scalar FogSequentialForward.fog[62].dispatcher remoteJobs_class_1 23
scalar FogSequentialForward.fog[62].dispatcher localJobs_class_1 3570
scalar FogSequentialForward.fog[62].server[0] rho 0.55216133594513
scalar FogSequentialForward.fog[62].server[0] congestionRatio 0
scalar FogSequentialForward.fog[62].server[0] totalJobs 3570
scalar FogSequentialForward.fog[62].server[0] droppedJobsQueue 0
scalar FogSequentialForward.fog[62].server[0] droppedJobsTimout 0
scalar FogSequentialForward.fog[62].server[0] droppedJobsSLA 0
scalar FogSequentialForward.fog[62].server[0] droppedJobsTotal 0
scalar FogSequentialForward.fog[63].dispatcher localJobs 3573
scalar FogSequentialForward.fog[63].dispatcher internalJobs 3571
scalar FogSequentialForward.fog[63].dispatcher externalJobs 28
scalar FogSequentialForward.fog[63].dispatcher remoteJobs 26
scalar FogSequentialForward.fog[63].dispatcher probeQueries 0
scalar FogSequentialForward.fog[63].dispatcher probeAnswers 0
scalar FogSequentialForward.fog[63].dispatcher droppedJobsSLA 0
scalar FogSequentialForward.fog[63].dispatcher jobs_class_1 3599
scalar FogSequentialForward.fog[63].dispatcher remoteJobs_class_1 26
scalar FogSequentialForward.fog[63].dispatcher localJobs_class_1 3573
scalar FogSequentialForward.fog[63].server[0] rho 0.55193257331848
scalar FogSequentialForward.fog[63].server[0] congestionRatio 0
scalar FogSequentialForward.fog[63].server[0] totalJobs 3573
scalar FogSequentialForward.fog[63].server[0] droppedJobsQueue 0
scalar FogSequentialForward.fog[63].server[0] droppedJobsTimout 0
scalar FogSequentialForward.fog[63].server[0] droppedJobsSLA 0
scalar FogSequentialForward.fog[63].server[0] droppedJobsTotal 0
scalar FogSequentialForward.fog[64].dispatcher localJobs 3565
scalar FogSequentialForward.fog[64].dispatcher internalJobs 3575
scalar FogSequentialForward.fog[64].dispatcher externalJobs 22
scalar FogSequentialForward.fog[64].dispatcher remoteJobs 32
scalar FogSequentialForward.fog[64].dispatcher probeQueries 0
scalar FogSequentialForward.fog[64].dispatcher probeAnswers 0
scalar FogSequentialForward.fog[64].dispatcher droppedJobsSLA 0
scalar FogSequentialForward.fog[64].dispatcher jobs_class_1 3597
scalar FogSequentialForward.fog[64].dispatcher remoteJobs_class_1 32
scalar FogSequentialForward.fog[64].dispatcher localJobs_class_1 3565
scalar FogSequentialForward.fog[64].server[0] rho 0.55127304792404
scalar FogSequentialForward.fog[64].server[0] congestionRatio 0
scalar FogSequentialForward.fog[64].server[0] totalJobs 3565
scalar FogSequentialForward.fog[64].server[0] droppedJobsQueue 0
scalar FogSequentialForward.fog[64].server[0] droppedJobsTimout 0
scalar FogSequentialForward.fog[64].server[0] droppedJobsSLA 0
scalar FogSequentialForward.fog[64].server[0] droppedJobsTotal 0
scalar FogSequentialForward.fog[65].dispatcher localJobs 3581
scalar FogSequentialForward.fog[65].dispatcher internalJobs 3568
scalar FogSequentialForward.fog[65].dispatcher externalJobs 25
scalar FogSequentialForward.fog[65].dispatcher remoteJobs 12
scalar FogSequentialForward.fog[65].dispatcher probeQueries 0
scalar FogSequentialForward.fog[65].dispatcher probeAnswers 0
scalar FogSequentialForward.fog[65].dispatcher droppedJobsSLA 0
scalar FogSequentialForward.fog[65].dispatcher jobs_class_1 3593
scalar FogSequentialForward.fog[65].dispatcher remoteJobs_class_1 12
scalar FogSequentialForward.fog[65].dispatcher localJobs_class_1 3581
scalar FogSequentialForward.fog[65].server[0] rho 0.55322951078415
scalar FogSequentialForward.fog[65].server[0] congestionRatio 0
scalar FogSequentialForward.fog[65].server[0] totalJobs 3581
scalar FogSequentialForward.fog[65].server[0] droppedJobsQueue 0
scalar FogSequentialForward.fog[65].server[0] droppedJobsTimout 0
scalar FogSequentialForward.fog[65].server[0] droppedJobsSLA 0
scalar FogSequentialForward.fog[65].server[0] droppedJobsTotal 0
scalar FogSequentialForward.fog[66].dispatcher localJobs 3600
scalar FogSequentialForward.fog[66].dispatcher internalJobs 3615
scalar FogSequentialForward.fog[66].dispatcher externalJobs 30
scalar FogSequentialForward.fog[66].dispatcher remoteJobs 45
scalar FogSequentialForward.fog[66].dispatcher probeQueries 0
scalar FogSequentialForward.fog[66].dispatcher probeAnswers 0
scalar FogSequentialForward.fog[66].dispatcher droppedJobsSLA 0
scalar FogSequentialForward.fog[66].dispatcher jobs_class_1 3645
scalar FogSequentialForward.fog[66].dispatcher remoteJobs_class_1 45
scalar FogSequentialForward.fog[66].dispatcher localJobs_class_1 3600
scalar FogSequentialForward.fog[66].server[0] rho 0.55687081813812
scalar FogSequentialForward.fog[66].server[0] congestionRatio 0
scalar FogSequentialForward.fog[66].server[0] totalJobs 3600
scalar FogSequentialForward.fog[66].server[0] droppedJobsQueue 0
scalar FogSequentialForward.fog[66].server[0] droppedJobsTimout 0
scalar FogSequentialForward.fog[66].server[0] droppedJobsSLA 0
scalar FogSequentialForward.fog[66].server[0] droppedJobsTotal 0
scalar FogSequentialForward.fog[67].dispatcher localJobs 3597
scalar FogSequentialForward.fog[67].dispatcher internalJobs 3601
scalar FogSequentialForward.fog[67].dispatcher externalJobs 26
scalar FogSequentialForward.fog[67].dispatcher remoteJobs 30
scalar FogSequentialForward.fog[67].dispatcher probeQueries 0
scalar FogSequentialForward.fog[67].dispatcher probeAnswers 0
scalar FogSequentialForward.fog[67].dispatcher droppedJobsSLA 0
scalar FogSequentialForward.fog[67].dispatcher jobs_class_1 3627
scalar FogSequentialForward.fog[67].dispatcher remoteJobs_class_1 30
scalar FogSequentialForward.fog[67].dispatcher localJobs_class_1 3597
scalar FogSequentialForward.fog[67].server[0] rho 0.55600440502167
scalar FogSequentialForward.fog[67].server[0] congestionRatio 0
scalar FogSequentialForward.fog[67].server[0] totalJobs 3597
scalar FogSequentialForward.fog[67].server[0] droppedJobsQueue 0
scalar FogSequentialForward.fog[67].server[0] droppedJobsTimout 0
scalar FogSequentialForward.fog[67].server[0] droppedJobsSLA 0
scalar FogSequentialForward.fog[67].server[0] droppedJobsTotal 0
scalar FogSequentialForward.fog[68].dispatcher localJobs 3603
scalar FogSequentialForward.fog[68].dispatcher internalJobs 3604
scalar FogSequentialForward.fog[68].dispatcher externalJobs 22
scalar FogSequentialForward.fog[68].dispatcher remoteJobs 23
scalar FogSequentialForward.fog[68].dispatcher probeQueries 0
scalar FogSequentialForward.fog[68].dispatcher probeAnswers 0
scalar FogSequentialForward.fog[68].dispatcher droppedJobsSLA 0
scalar FogSequentialForward.fog[68].dispatcher jobs_class_1 3626
scalar FogSequentialForward.fog[68].dispatcher remoteJobs_class_1 23
scalar FogSequentialForward.fog[68].dispatcher localJobs_class_1 3603
scalar FogSequentialForward.fog[68].server[0] rho 0.55713260173798
scalar FogSequentialForward.fog[68].server[0] congestionRatio 0
scalar FogSequentialForward.fog[68].server[0] totalJobs 3603
scalar FogSequentialForward.fog[68].server[0] droppedJobsQueue 0
scalar FogSequentialForward.fog[68].server[0] droppedJobsTimout 0
scalar FogSequentialForward.fog[68].server[0] droppedJobsSLA 0
scalar FogSequentialForward.fog[68].server[0] droppedJobsTotal 0
scalar FogSequentialForward.fog[69].dispatcher localJobs 3623
scalar FogSequentialForward.fog[69].dispatcher internalJobs 3613
scalar FogSequentialForward.fog[69].dispatcher externalJobs 31
scalar FogSequentialForward.fog[69].dispatcher remoteJobs 21
scalar FogSequentialForward.fog[69].dispatcher probeQueries 0
scalar FogSequentialForward.fog[69].dispatcher probeAnswers 0
scalar FogSequentialForward.fog[69].dispatcher droppedJobsSLA 0
scalar FogSequentialForward.fog[69].dispatcher jobs_class_1 3644
scalar FogSequentialForward.fog[69].dispatcher remoteJobs_class_1 21
scalar FogSequentialForward.fog[69].dispatcher localJobs_class_1 3623
scalar FogSequentialForward.fog[69].server[0] rho 0.56054067611694
scalar FogSequentialForward.fog[69].server[0] congestionRatio 0
scalar FogSequentialForward.fog[69].server[0] totalJobs 3623
scalar FogSequentialForward.fog[69].server[0] droppedJobsQueue 0
scalar FogSequentialForward.fog[69].server[0] droppedJobsTimout 0
scalar FogSequentialForward.fog[69].server[0] droppedJobsSLA 0
scalar FogSequentialForward.fog[69].server[0] droppedJobsTotal 0
scalar FogSequentialForward.fog[70].dispatcher localJobs 3580
scalar FogSequentialForward.fog[70].dispatcher internalJobs 3585
scalar FogSequentialForward.fog[70].dispatcher externalJobs 22
scalar FogSequentialForward.fog[70].dispatcher remoteJobs 27
scalar FogSequentialForward.fog[70].dispatcher probeQueries 0
scalar FogSequentialForward.fog[70].dispatcher probeAnswers 0
scalar FogSequentialForward.fog[70].dispatcher droppedJobsSLA 0
scalar FogSequentialForward.fog[70].dispatcher jobs_class_1 3607
scalar FogSequentialForward.fog[70].dispatcher remoteJobs_class_1 27
scalar FogSequentialForward.fog[70].dispatcher localJobs_class_1 3580
scalar FogSequentialForward.fog[70].server[0] rho 0.55363690853119
scalar FogSequentialForward.fog[70].server[0] congestionRatio 0
scalar FogSequentialForward.fog[70].server[0] totalJobs 3580
scalar FogSequentialForward.fog[70].server[0] droppedJobsQueue 0
scalar FogSequentialForward.fog[70].server[0] droppedJobsTimout 0
scalar FogSequentialForward.fog[70].server[0] droppedJobsSLA 0
scalar FogSequentialForward.fog[70].server[0] droppedJobsTotal 0
scalar FogSequentialForward.fog[71].dispatcher localJobs 3597
scalar FogSequentialForward.fog[71].dispatcher internalJobs 3602
scalar FogSequentialForward.fog[71].dispatcher externalJobs 14
scalar FogSequentialForward.fog[71].dispatcher remoteJobs 19
scalar FogSequentialForward.fog[71].dispatcher probeQueries 0
scalar FogSequentialForward.fog[71].dispatcher probeAnswers 0
scalar FogSequentialForward.fog[71].dispatcher droppedJobsSLA 0
scalar FogSequentialForward.fog[71].dispatcher jobs_class_1 3616
scalar FogSequentialForward.fog[71].dispatcher remoteJobs_class_1 19
scalar FogSequentialForward.fog[71].dispatcher localJobs_class_1 3597
scalar FogSequentialForward.fog[71].server[0] rho 0.55594444274902
scalar FogSequentialForward.fog[71].server[0] congestionRatio 0
scalar FogSequentialForward.fog[71].server[0] totalJobs 3597
scalar FogSequentialForward.fog[71].server[0] droppedJobsQueue 0
scalar FogSequentialForward.fog[71].server[0] droppedJobsTimout 0
scalar FogSequentialForward.fog[71].server[0] droppedJobsSLA 0
scalar FogSequentialForward.fog[71].server[0] droppedJobsTotal 0
scalar FogSequentialForward.fog[72].dispatcher localJobs 3572
scalar FogSequentialForward.fog[72].dispatcher internalJobs 3567
[...]
scalar FogSequentialForward.fog[82].server[0] droppedJobsQueue 0
scalar FogSequentialForward.fog[82].server[0] droppedJobsTimout 0
scalar FogSequentialForward.fog[82].server[0] droppedJobsSLA 0
scalar FogSequentialForward.fog[82].server[0] droppedJobsTotal 0
scalar FogSequentialForward.fog[83].dispatcher localJobs 3635
scalar FogSequentialForward.fog[83].dispatcher internalJobs 3625
scalar FogSequentialForward.fog[83].dispatcher externalJobs 24
scalar FogSequentialForward.fog[83].dispatcher remoteJobs 14
scalar FogSequentialForward.fog[83].dispatcher probeQueries 0
scalar FogSequentialForward.fog[83].dispatcher probeAnswers 0
scalar FogSequentialForward.fog[83].dispatcher droppedJobsSLA 0
scalar FogSequentialForward.fog[83].dispatcher jobs_class_1 3649
scalar FogSequentialForward.fog[83].dispatcher remoteJobs_class_1 14
scalar FogSequentialForward.fog[83].dispatcher localJobs_class_1 3635
scalar FogSequentialForward.fog[83].server[0] rho 0.56211096048355
scalar FogSequentialForward.fog[83].server[0] congestionRatio 0
scalar FogSequentialForward.fog[83].server[0] totalJobs 3635
scalar FogSequentialForward.fog[83].server[0] droppedJobsQueue 0
scalar FogSequentialForward.fog[83].server[0] droppedJobsTimout 0
scalar FogSequentialForward.fog[83].server[0] droppedJobsSLA 0
scalar FogSequentialForward.fog[83].server[0] droppedJobsTotal 0
scalar FogSequentialForward.fog[84].dispatcher localJobs 3651
scalar FogSequentialForward.fog[84].dispatcher internalJobs 3673
scalar FogSequentialForward.fog[84].dispatcher externalJobs 16
scalar FogSequentialForward.fog[84].dispatcher remoteJobs 38
scalar FogSequentialForward.fog[84].dispatcher probeQueries 0
scalar FogSequentialForward.fog[84].dispatcher probeAnswers 0
scalar FogSequentialForward.fog[84].dispatcher droppedJobsSLA 0
scalar FogSequentialForward.fog[84].dispatcher jobs_class_1 3689
scalar FogSequentialForward.fog[84].dispatcher remoteJobs_class_1 38
scalar FogSequentialForward.fog[84].dispatcher localJobs_class_1 3651
scalar FogSequentialForward.fog[84].server[0] rho 0.5646641254425
scalar FogSequentialForward.fog[84].server[0] congestionRatio 0
scalar FogSequentialForward.fog[84].server[0] totalJobs 3651
scalar FogSequentialForward.fog[84].server[0] droppedJobsQueue 0
scalar FogSequentialForward.fog[84].server[0] droppedJobsTimout 0
scalar FogSequentialForward.fog[84].server[0] droppedJobsSLA 0
scalar FogSequentialForward.fog[84].server[0] droppedJobsTotal 0
scalar FogSequentialForward.fog[85].dispatcher localJobs 3517
scalar FogSequentialForward.fog[85].dispatcher internalJobs 3525
scalar FogSequentialForward.fog[85].dispatcher externalJobs 16
scalar FogSequentialForward.fog[85].dispatcher remoteJobs 24
scalar FogSequentialForward.fog[85].dispatcher probeQueries 0
scalar FogSequentialForward.fog[85].dispatcher probeAnswers 0
scalar FogSequentialForward.fog[85].dispatcher droppedJobsSLA 0
scalar FogSequentialForward.fog[85].dispatcher jobs_class_1 3541
scalar FogSequentialForward.fog[85].dispatcher remoteJobs_class_1 24
scalar FogSequentialForward.fog[85].dispatcher localJobs_class_1 3517
scalar FogSequentialForward.fog[85].server[0] rho 0.5436082482338
scalar FogSequentialForward.fog[85].server[0] congestionRatio 0
scalar FogSequentialForward.fog[85].server[0] totalJobs 3517
scalar FogSequentialForward.fog[85].server[0] droppedJobsQueue 0
scalar FogSequentialForward.fog[85].server[0] droppedJobsTimout 0
scalar FogSequentialForward.fog[85].server[0] droppedJobsSLA 0
scalar FogSequentialForward.fog[85].server[0] droppedJobsTotal 0
scalar FogSequentialForward.fog[86].dispatcher localJobs 3630
scalar FogSequentialForward.fog[86].dispatcher internalJobs 3626
scalar FogSequentialForward.fog[86].dispatcher externalJobs 28
scalar FogSequentialForward.fog[86].dispatcher remoteJobs 24
scalar FogSequentialForward.fog[86].dispatcher probeQueries 0
scalar FogSequentialForward.fog[86].dispatcher probeAnswers 0
scalar FogSequentialForward.fog[86].dispatcher droppedJobsSLA 0
scalar FogSequentialForward.fog[86].dispatcher jobs_class_1 3654
scalar FogSequentialForward.fog[86].dispatcher remoteJobs_class_1 24
scalar FogSequentialForward.fog[86].dispatcher localJobs_class_1 3630
scalar FogSequentialForward.fog[86].server[0] rho 0.56132698059082
scalar FogSequentialForward.fog[86].server[0] congestionRatio 0
scalar FogSequentialForward.fog[86].server[0] totalJobs 3630
scalar FogSequentialForward.fog[86].server[0] droppedJobsQueue 0
scalar FogSequentialForward.fog[86].server[0] droppedJobsTimout 0
scalar FogSequentialForward.fog[86].server[0] droppedJobsSLA 0
scalar FogSequentialForward.fog[86].server[0] droppedJobsTotal 0
scalar FogSequentialForward.fog[87].dispatcher localJobs 3686
scalar FogSequentialForward.fog[87].dispatcher internalJobs 3684
scalar FogSequentialForward.fog[87].dispatcher externalJobs 28
scalar FogSequentialForward.fog[87].dispatcher remoteJobs 26
scalar FogSequentialForward.fog[87].dispatcher probeQueries 0
scalar FogSequentialForward.fog[87].dispatcher probeAnswers 0
scalar FogSequentialForward.fog[87].dispatcher droppedJobsSLA 0
scalar FogSequentialForward.fog[87].dispatcher jobs_class_1 3712
scalar FogSequentialForward.fog[87].dispatcher remoteJobs_class_1 26
scalar FogSequentialForward.fog[87].dispatcher localJobs_class_1 3686
scalar FogSequentialForward.fog[87].server[0] rho 0.57015991210938
scalar FogSequentialForward.fog[87].server[0] congestionRatio 0
scalar FogSequentialForward.fog[87].server[0] totalJobs 3686
scalar FogSequentialForward.fog[87].server[0] droppedJobsQueue 0
scalar FogSequentialForward.fog[87].server[0] droppedJobsTimout 0
scalar FogSequentialForward.fog[87].server[0] droppedJobsSLA 0
scalar FogSequentialForward.fog[87].server[0] droppedJobsTotal 0
scalar FogSequentialForward.fog[88].dispatcher localJobs 3585
scalar FogSequentialForward.fog[88].dispatcher internalJobs 3582
scalar FogSequentialForward.fog[88].dispatcher externalJobs 24
scalar FogSequentialForward.fog[88].dispatcher remoteJobs 21
scalar FogSequentialForward.fog[88].dispatcher probeQueries 0
scalar FogSequentialForward.fog[88].dispatcher probeAnswers 0
scalar FogSequentialForward.fog[88].dispatcher droppedJobsSLA 0
scalar FogSequentialForward.fog[88].dispatcher jobs_class_1 3606
scalar FogSequentialForward.fog[88].dispatcher remoteJobs_class_1 21
scalar FogSequentialForward.fog[88].dispatcher localJobs_class_1 3585
scalar FogSequentialForward.fog[88].server[0] rho 0.5542339682579
scalar FogSequentialForward.fog[88].server[0] congestionRatio 0
scalar FogSequentialForward.fog[88].server[0] totalJobs 3585
scalar FogSequentialForward.fog[88].server[0] droppedJobsQueue 0
scalar FogSequentialForward.fog[88].server[0] droppedJobsTimout 0
scalar FogSequentialForward.fog[88].server[0] droppedJobsSLA 0
scalar FogSequentialForward.fog[88].server[0] droppedJobsTotal 0
scalar FogSequentialForward.fog[89].dispatcher localJobs 3682
scalar FogSequentialForward.fog[89].dispatcher internalJobs 3688
scalar FogSequentialForward.fog[89].dispatcher externalJobs 26
scalar FogSequentialForward.fog[89].dispatcher remoteJobs 32
scalar FogSequentialForward.fog[89].dispatcher probeQueries 0
scalar FogSequentialForward.fog[89].dispatcher probeAnswers 0
scalar FogSequentialForward.fog[89].dispatcher droppedJobsSLA 0
scalar FogSequentialForward.fog[89].dispatcher jobs_class_1 3714
scalar FogSequentialForward.fog[89].dispatcher remoteJobs_class_1 32
scalar FogSequentialForward.fog[89].dispatcher localJobs_class_1 3682
scalar FogSequentialForward.fog[89].server[0] rho 0.56887537240982
scalar FogSequentialForward.fog[89].server[0] congestionRatio 0
scalar FogSequentialForward.fog[89].server[0] totalJobs 3682
scalar FogSequentialForward.fog[89].server[0] droppedJobsQueue 0
scalar FogSequentialForward.fog[89].server[0] droppedJobsTimout 0
scalar FogSequentialForward.fog[89].server[0] droppedJobsSLA 0
scalar FogSequentialForward.fog[89].server[0] droppedJobsTotal 0
scalar FogSequentialForward.fog[90].dispatcher localJobs 3562
scalar FogSequentialForward.fog[90].dispatcher internalJobs 3562
scalar FogSequentialForward.fog[90].dispatcher externalJobs 18
scalar FogSequentialForward.fog[90].dispatcher remoteJobs 18
scalar FogSequentialForward.fog[90].dispatcher probeQueries 0
scalar FogSequentialForward.fog[90].dispatcher probeAnswers 0
scalar FogSequentialForward.fog[90].dispatcher droppedJobsSLA 0
scalar FogSequentialForward.fog[90].dispatcher jobs_class_1 3580
scalar FogSequentialForward.fog[90].dispatcher remoteJobs_class_1 18
scalar FogSequentialForward.fog[90].dispatcher localJobs_class_1 3562
scalar FogSequentialForward.fog[90].server[0] rho 0.55135762691498
scalar FogSequentialForward.fog[90].server[0] congestionRatio 0
scalar FogSequentialForward.fog[90].server[0] totalJobs 3562
scalar FogSequentialForward.fog[90].server[0] droppedJobsQueue 0
scalar FogSequentialForward.fog[90].server[0] droppedJobsTimout 0
scalar FogSequentialForward.fog[90].server[0] droppedJobsSLA 0
scalar FogSequentialForward.fog[90].server[0] droppedJobsTotal 0
scalar FogSequentialForward.fog[91].dispatcher localJobs 3536
scalar FogSequentialForward.fog[91].dispatcher internalJobs 3528
scalar FogSequentialForward.fog[91].dispatcher externalJobs 27
scalar FogSequentialForward.fog[91].dispatcher remoteJobs 19
scalar FogSequentialForward.fog[91].dispatcher probeQueries 0
scalar FogSequentialForward.fog[91].dispatcher probeAnswers 0
scalar FogSequentialForward.fog[91].dispatcher droppedJobsSLA 0
scalar FogSequentialForward.fog[91].dispatcher jobs_class_1 3555
scalar FogSequentialForward.fog[91].dispatcher remoteJobs_class_1 19
scalar FogSequentialForward.fog[91].dispatcher localJobs_class_1 3536
scalar FogSequentialForward.fog[91].server[0] rho 0.54682558774948
scalar FogSequentialForward.fog[91].server[0] congestionRatio 0
scalar FogSequentialForward.fog[91].server[0] totalJobs 3536
scalar FogSequentialForward.fog[91].server[0] droppedJobsQueue 0
scalar FogSequentialForward.fog[91].server[0] droppedJobsTimout 0
scalar FogSequentialForward.fog[91].server[0] droppedJobsSLA 0
scalar FogSequentialForward.fog[91].server[0] droppedJobsTotal 0
scalar FogSequentialForward.fog[92].dispatcher localJobs 3612
scalar FogSequentialForward.fog[92].dispatcher internalJobs 3602
scalar FogSequentialForward.fog[92].dispatcher externalJobs 32
scalar FogSequentialForward.fog[92].dispatcher remoteJobs 22
scalar FogSequentialForward.fog[92].dispatcher probeQueries 0
scalar FogSequentialForward.fog[92].dispatcher probeAnswers 0
scalar FogSequentialForward.fog[92].dispatcher droppedJobsSLA 0
scalar FogSequentialForward.fog[92].dispatcher jobs_class_1 3634
scalar FogSequentialForward.fog[92].dispatcher remoteJobs_class_1 22
scalar FogSequentialForward.fog[92].dispatcher localJobs_class_1 3612
scalar FogSequentialForward.fog[92].server[0] rho 0.55851829051971
scalar FogSequentialForward.fog[92].server[0] congestionRatio 0
scalar FogSequentialForward.fog[92].server[0] totalJobs 3612
scalar FogSequentialForward.fog[92].server[0] droppedJobsQueue 0
scalar FogSequentialForward.fog[92].server[0] droppedJobsTimout 0
scalar FogSequentialForward.fog[92].server[0] droppedJobsSLA 0
scalar FogSequentialForward.fog[92].server[0] droppedJobsTotal 0
scalar FogSequentialForward.fog[93].dispatcher localJobs 3692
scalar FogSequentialForward.fog[93].dispatcher internalJobs 3707
scalar FogSequentialForward.fog[93].dispatcher externalJobs 22
scalar FogSequentialForward.fog[93].dispatcher remoteJobs 37
scalar FogSequentialForward.fog[93].dispatcher probeQueries 0
scalar FogSequentialForward.fog[93].dispatcher probeAnswers 0
scalar FogSequentialForward.fog[93].dispatcher droppedJobsSLA 0
scalar FogSequentialForward.fog[93].dispatcher jobs_class_1 3729
scalar FogSequentialForward.fog[93].dispatcher remoteJobs_class_1 37
scalar FogSequentialForward.fog[93].dispatcher localJobs_class_1 3692
scalar FogSequentialForward.fog[93].server[0] rho 0.57038933038712
scalar FogSequentialForward.fog[93].server[0] congestionRatio 0
scalar FogSequentialForward.fog[93].server[0] totalJobs 3692
scalar FogSequentialForward.fog[93].server[0] droppedJobsQueue 0
scalar FogSequentialForward.fog[93].server[0] droppedJobsTimout 0
scalar FogSequentialForward.fog[93].server[0] droppedJobsSLA 0
scalar FogSequentialForward.fog[93].server[0] droppedJobsTotal 0
scalar FogSequentialForward.fog[94].dispatcher localJobs 3736
scalar FogSequentialForward.fog[94].dispatcher internalJobs 3748
scalar FogSequentialForward.fog[94].dispatcher externalJobs 29
scalar FogSequentialForward.fog[94].dispatcher remoteJobs 41
scalar FogSequentialForward.fog[94].dispatcher probeQueries 0
scalar FogSequentialForward.fog[94].dispatcher probeAnswers 0
scalar FogSequentialForward.fog[94].dispatcher droppedJobsSLA 0
scalar FogSequentialForward.fog[94].dispatcher jobs_class_1 3777
scalar FogSequentialForward.fog[94].dispatcher remoteJobs_class_1 41
scalar FogSequentialForward.fog[94].dispatcher localJobs_class_1 3736
scalar FogSequentialForward.fog[94].server[0] rho 0.57752394676208
scalar FogSequentialForward.fog[94].server[0] congestionRatio 0
scalar FogSequentialForward.fog[94].server[0] totalJobs 3736
scalar FogSequentialForward.fog[94].server[0] droppedJobsQueue 0
scalar FogSequentialForward.fog[94].server[0] droppedJobsTimout 0
scalar FogSequentialForward.fog[94].server[0] droppedJobsSLA 0
scalar FogSequentialForward.fog[94].server[0] droppedJobsTotal 0
scalar FogSequentialForward.fog[95].dispatcher localJobs 3549
scalar FogSequentialForward.fog[95].dispatcher internalJobs 3545
scalar FogSequentialForward.fog[95].dispatcher externalJobs 32
scalar FogSequentialForward.fog[95].dispatcher remoteJobs 28
scalar FogSequentialForward.fog[95].dispatcher probeQueries 0
scalar FogSequentialForward.fog[95].dispatcher probeAnswers 0
scalar FogSequentialForward.fog[95].dispatcher droppedJobsSLA 0
scalar FogSequentialForward.fog[95].dispatcher jobs_class_1 3577
scalar FogSequentialForward.fog[95].dispatcher remoteJobs_class_1 28
scalar FogSequentialForward.fog[95].dispatcher localJobs_class_1 3549
scalar FogSequentialForward.fog[95].server[0] rho 0.54847502708435
scalar FogSequentialForward.fog[95].server[0] congestionRatio 0
scalar FogSequentialForward.fog[95].server[0] totalJobs 3549
scalar FogSequentialForward.fog[95].server[0] droppedJobsQueue 0
scalar FogSequentialForward.fog[95].server[0] droppedJobsTimout 0
scalar FogSequentialForward.fog[95].server[0] droppedJobsSLA 0
scalar FogSequentialForward.fog[95].server[0] droppedJobsTotal 0
scalar FogSequentialForward.fog[96].dispatcher localJobs 3452
scalar FogSequentialForward.fog[96].dispatcher internalJobs 3439
scalar FogSequentialForward.fog[96].dispatcher externalJobs 24
scalar FogSequentialForward.fog[96].dispatcher remoteJobs 11
scalar FogSequentialForward.fog[96].dispatcher probeQueries 0
scalar FogSequentialForward.fog[96].dispatcher probeAnswers 0
scalar FogSequentialForward.fog[96].dispatcher droppedJobsSLA 0
scalar FogSequentialForward.fog[96].dispatcher jobs_class_1 3463
scalar FogSequentialForward.fog[96].dispatcher remoteJobs_class_1 11
scalar FogSequentialForward.fog[96].dispatcher localJobs_class_1 3452
scalar FogSequentialForward.fog[96].server[0] rho 0.53394424915314
scalar FogSequentialForward.fog[96].server[0] congestionRatio 0
scalar FogSequentialForward.fog[96].server[0] totalJobs 3452
scalar FogSequentialForward.fog[96].server[0] droppedJobsQueue 0
scalar FogSequentialForward.fog[96].server[0] droppedJobsTimout 0
scalar FogSequentialForward.fog[96].server[0] droppedJobsSLA 0
scalar FogSequentialForward.fog[96].server[0] droppedJobsTotal 0
scalar FogSequentialForward.fog[97].dispatcher localJobs 3582
scalar FogSequentialForward.fog[97].dispatcher internalJobs 3578
scalar FogSequentialForward.fog[97].dispatcher externalJobs 25
scalar FogSequentialForward.fog[97].dispatcher remoteJobs 21
scalar FogSequentialForward.fog[97].dispatcher probeQueries 0
scalar FogSequentialForward.fog[97].dispatcher probeAnswers 0
scalar FogSequentialForward.fog[97].dispatcher droppedJobsSLA 0
scalar FogSequentialForward.fog[97].dispatcher jobs_class_1 3603
scalar FogSequentialForward.fog[97].dispatcher remoteJobs_class_1 21
scalar FogSequentialForward.fog[97].dispatcher localJobs_class_1 3582
scalar FogSequentialForward.fog[97].server[0] rho 0.55388462543488
scalar FogSequentialForward.fog[97].server[0] congestionRatio 0
scalar FogSequentialForward.fog[97].server[0] totalJobs 3582
scalar FogSequentialForward.fog[97].server[0] droppedJobsQueue 0
scalar FogSequentialForward.fog[97].server[0] droppedJobsTimout 0
scalar FogSequentialForward.fog[97].server[0] droppedJobsSLA 0
scalar FogSequentialForward.fog[97].server[0] droppedJobsTotal 0
scalar FogSequentialForward.fog[98].dispatcher localJobs 3603
scalar FogSequentialForward.fog[98].dispatcher internalJobs 3600
scalar FogSequentialForward.fog[98].dispatcher externalJobs 28
scalar FogSequentialForward.fog[98].dispatcher remoteJobs 25
scalar FogSequentialForward.fog[98].dispatcher probeQueries 0
scalar FogSequentialForward.fog[98].dispatcher probeAnswers 0
scalar FogSequentialForward.fog[98].dispatcher droppedJobsSLA 0
scalar FogSequentialForward.fog[98].dispatcher jobs_class_1 3628
scalar FogSequentialForward.fog[98].dispatcher remoteJobs_class_1 25
scalar FogSequentialForward.fog[98].dispatcher localJobs_class_1 3603
scalar FogSequentialForward.fog[98].server[0] rho 0.55740243196487
scalar FogSequentialForward.fog[98].server[0] congestionRatio 0
scalar FogSequentialForward.fog[98].server[0] totalJobs 3603
scalar FogSequentialForward.fog[98].server[0] droppedJobsQueue 0
scalar FogSequentialForward.fog[98].server[0] droppedJobsTimout 0
scalar FogSequentialForward.fog[98].server[0] droppedJobsSLA 0
scalar FogSequentialForward.fog[98].server[0] droppedJobsTotal 0
scalar FogSequentialForward.fog[99].dispatcher localJobs 3566
scalar FogSequentialForward.fog[99].dispatcher internalJobs 3568
scalar FogSequentialForward.fog[99].dispatcher externalJobs 31
scalar FogSequentialForward.fog[99].dispatcher remoteJobs 33
scalar FogSequentialForward.fog[99].dispatcher probeQueries 0
scalar FogSequentialForward.fog[99].dispatcher probeAnswers 0
scalar FogSequentialForward.fog[99].dispatcher droppedJobsSLA 0
scalar FogSequentialForward.fog[99].dispatcher jobs_class_1 3599
scalar FogSequentialForward.fog[99].dispatcher remoteJobs_class_1 33
scalar FogSequentialForward.fog[99].dispatcher localJobs_class_1 3566
scalar FogSequentialForward.fog[99].server[0] rho 0.55088102817535
scalar FogSequentialForward.fog[99].server[0] congestionRatio 0
scalar FogSequentialForward.fog[99].server[0] totalJobs 3566
scalar FogSequentialForward.fog[99].server[0] droppedJobsQueue 0
scalar FogSequentialForward.fog[99].server[0] droppedJobsTimout 0
scalar FogSequentialForward.fog[99].server[0] droppedJobsSLA 0
scalar FogSequentialForward.fog[99].server[0] droppedJobsTotal 0
scalar FogSequentialForward.sink avg_responseTime_1 2.6370099745445
scalar FogSequentialForward.sink p90_responseTime_1 1.521409619559
scalar FogSequentialForward.sink med_responseTime_1 1.521409619559
scalar FogSequentialForward.sink avg_delayTime_1 0
scalar FogSequentialForward.sink p90_delayTime_1 0
scalar FogSequentialForward.sink med_delayTime_1 0
scalar FogSequentialForward.sink avg_queuingTime_1 0.96685656388665
scalar FogSequentialForward.sink p90_queuingTime_1 0
scalar FogSequentialForward.sink med_queuingTime_1 0
scalar FogSequentialForward.sink avg_serviceTime_1 1.6700335528664
scalar FogSequentialForward.sink p90_serviceTime_1 1.500756621053
scalar FogSequentialForward.sink med_serviceTime_1 1.500756621053
scalar FogSequentialForward.sink avg_balancerTime_1 0.00011985779146082
scalar FogSequentialForward.sink p90_balancerTime_1 0
scalar FogSequentialForward.sink med_balancerTime_1 0
scalar FogSequentialForward.sink avg_balancerCount_1 1.0071771132611
scalar FogSequentialForward.sink p90_balancerCount_1 1
scalar FogSequentialForward.sink med_balancerCount_1 1

