version 2
run Fog-mul_001-rho_02-thr_10-0-20190712-20:14:31-3426
attr configname Fog-mul_001-rho_02-thr_10
attr datetime 20190712-20:14:31
attr experiment Fog-mul_001-rho_02-thr_10
attr inifile FogSequentialForward.ini
attr iterationvars ""
attr iterationvarsf ""
attr measurement ""
attr network FogSequentialForward
attr processid 3426
attr repetition 0
attr replication #0
attr resultdir results
attr runnumber 0
attr seedset 0
param FogSequentialForward.proctimeMul 0.01
param FogSequentialForward.rho 0.2
param FogSequentialForward.fog[*].dispatcher.thr 10
param FogSequentialForward.nSources 100
param FogSequentialForward.rho 0.9
param FogSequentialForward.proctimeMul 1.0
param FogSequentialForward.source[*].appId 1
param FogSequentialForward.source[*].realTime true
param FogSequentialForward.source[*].multiHop true
param FogSequentialForward.fog[*].nServers 1
param FogSequentialForward.fog[*].dispatcher.fanOut 1
param FogSequentialForward.fog[*].server[*].timeSlice -1s
param FogSequentialForward.fog[*].server[*].timeout -1s
param FogSequentialForward.fog[*].server[*].capacity 20
param FogSequentialForward.fog[*].server[*].fifo true
param FogSequentialForward.fog[*].server[*].maxServiceTime -1s
param FogSequentialForward.fog[*].dispatcher.thr 1

scalar FogSequentialForward.fog[0].dispatcher localJobs 360580
scalar FogSequentialForward.fog[0].dispatcher internalJobs 360583
scalar FogSequentialForward.fog[0].dispatcher externalJobs 11
scalar FogSequentialForward.fog[0].dispatcher remoteJobs 14
scalar FogSequentialForward.fog[0].dispatcher probeQueries 0
scalar FogSequentialForward.fog[0].dispatcher probeAnswers 0
scalar FogSequentialForward.fog[0].dispatcher droppedJobsSLA 0
scalar FogSequentialForward.fog[0].dispatcher jobs_class_1 360594
scalar FogSequentialForward.fog[0].dispatcher remoteJobs_class_1 14
scalar FogSequentialForward.fog[0].dispatcher localJobs_class_1 360580
scalar FogSequentialForward.fog[0].server[0] rho 0.55753600597382
scalar FogSequentialForward.fog[0].server[0] congestionRatio 0
scalar FogSequentialForward.fog[0].server[0] totalJobs 360580
scalar FogSequentialForward.fog[0].server[0] droppedJobsQueue 0
scalar FogSequentialForward.fog[0].server[0] droppedJobsTimout 0
scalar FogSequentialForward.fog[0].server[0] droppedJobsSLA 3
scalar FogSequentialForward.fog[0].server[0] droppedJobsTotal 3
scalar FogSequentialForward.fog[1].dispatcher localJobs 360305
scalar FogSequentialForward.fog[1].dispatcher internalJobs 360311
scalar FogSequentialForward.fog[1].dispatcher externalJobs 7
scalar FogSequentialForward.fog[1].dispatcher remoteJobs 13
scalar FogSequentialForward.fog[1].dispatcher probeQueries 0
scalar FogSequentialForward.fog[1].dispatcher probeAnswers 0
scalar FogSequentialForward.fog[1].dispatcher droppedJobsSLA 0
scalar FogSequentialForward.fog[1].dispatcher jobs_class_1 360318
scalar FogSequentialForward.fog[1].dispatcher remoteJobs_class_1 13
scalar FogSequentialForward.fog[1].dispatcher localJobs_class_1 360305
scalar FogSequentialForward.fog[1].server[0] rho 0.55719250440598
scalar FogSequentialForward.fog[1].server[0] congestionRatio 0
scalar FogSequentialForward.fog[1].server[0] totalJobs 360305
scalar FogSequentialForward.fog[1].server[0] droppedJobsQueue 0
scalar FogSequentialForward.fog[1].server[0] droppedJobsTimout 0
scalar FogSequentialForward.fog[1].server[0] droppedJobsSLA 4
scalar FogSequentialForward.fog[1].server[0] droppedJobsTotal 4
scalar FogSequentialForward.fog[2].dispatcher localJobs 361163
scalar FogSequentialForward.fog[2].dispatcher internalJobs 361164
scalar FogSequentialForward.fog[2].dispatcher externalJobs 10
scalar FogSequentialForward.fog[2].dispatcher remoteJobs 11
scalar FogSequentialForward.fog[2].dispatcher probeQueries 0
scalar FogSequentialForward.fog[2].dispatcher probeAnswers 0
scalar FogSequentialForward.fog[2].dispatcher droppedJobsSLA 0
scalar FogSequentialForward.fog[2].dispatcher jobs_class_1 361174
scalar FogSequentialForward.fog[2].dispatcher remoteJobs_class_1 11
scalar FogSequentialForward.fog[2].dispatcher localJobs_class_1 361163
scalar FogSequentialForward.fog[2].server[0] rho 0.55847746133804
scalar FogSequentialForward.fog[2].server[0] congestionRatio 0
scalar FogSequentialForward.fog[2].server[0] totalJobs 361163
scalar FogSequentialForward.fog[2].server[0] droppedJobsQueue 0
scalar FogSequentialForward.fog[2].server[0] droppedJobsTimout 0
scalar FogSequentialForward.fog[2].server[0] droppedJobsSLA 1
scalar FogSequentialForward.fog[2].server[0] droppedJobsTotal 1
scalar FogSequentialForward.fog[3].dispatcher localJobs 360128
scalar FogSequentialForward.fog[3].dispatcher internalJobs 360117
scalar FogSequentialForward.fog[3].dispatcher externalJobs 16
scalar FogSequentialForward.fog[3].dispatcher remoteJobs 5
scalar FogSequentialForward.fog[3].dispatcher probeQueries 0
scalar FogSequentialForward.fog[3].dispatcher probeAnswers 0
scalar FogSequentialForward.fog[3].dispatcher droppedJobsSLA 0
scalar FogSequentialForward.fog[3].dispatcher jobs_class_1 360133
scalar FogSequentialForward.fog[3].dispatcher remoteJobs_class_1 5
scalar FogSequentialForward.fog[3].dispatcher localJobs_class_1 360128
scalar FogSequentialForward.fog[3].server[0] rho 0.55686819553375
scalar FogSequentialForward.fog[3].server[0] congestionRatio 0
scalar FogSequentialForward.fog[3].server[0] totalJobs 360128
scalar FogSequentialForward.fog[3].server[0] droppedJobsQueue 0
scalar FogSequentialForward.fog[3].server[0] droppedJobsTimout 0
scalar FogSequentialForward.fog[3].server[0] droppedJobsSLA 0
scalar FogSequentialForward.fog[3].server[0] droppedJobsTotal 0
scalar FogSequentialForward.fog[4].dispatcher localJobs 360736
scalar FogSequentialForward.fog[4].dispatcher internalJobs 360733
scalar FogSequentialForward.fog[4].dispatcher externalJobs 12
scalar FogSequentialForward.fog[4].dispatcher remoteJobs 9
scalar FogSequentialForward.fog[4].dispatcher probeQueries 0
scalar FogSequentialForward.fog[4].dispatcher probeAnswers 0
scalar FogSequentialForward.fog[4].dispatcher droppedJobsSLA 0
scalar FogSequentialForward.fog[4].dispatcher jobs_class_1 360745
scalar FogSequentialForward.fog[4].dispatcher remoteJobs_class_1 9
scalar FogSequentialForward.fog[4].dispatcher localJobs_class_1 360736
scalar FogSequentialForward.fog[4].server[0] rho 0.55776649713516
scalar FogSequentialForward.fog[4].server[0] congestionRatio 0
scalar FogSequentialForward.fog[4].server[0] totalJobs 360736
scalar FogSequentialForward.fog[4].server[0] droppedJobsQueue 0
scalar FogSequentialForward.fog[4].server[0] droppedJobsTimout 0
scalar FogSequentialForward.fog[4].server[0] droppedJobsSLA 2
scalar FogSequentialForward.fog[4].server[0] droppedJobsTotal 2
scalar FogSequentialForward.fog[5].dispatcher localJobs 361308
scalar FogSequentialForward.fog[5].dispatcher internalJobs 361299
scalar FogSequentialForward.fog[5].dispatcher externalJobs 14
scalar FogSequentialForward.fog[5].dispatcher remoteJobs 5
scalar FogSequentialForward.fog[5].dispatcher probeQueries 0
scalar FogSequentialForward.fog[5].dispatcher probeAnswers 0
scalar FogSequentialForward.fog[5].dispatcher droppedJobsSLA 0
scalar FogSequentialForward.fog[5].dispatcher jobs_class_1 361313
scalar FogSequentialForward.fog[5].dispatcher remoteJobs_class_1 5
scalar FogSequentialForward.fog[5].dispatcher localJobs_class_1 361308
scalar FogSequentialForward.fog[5].server[0] rho 0.55867922306061
scalar FogSequentialForward.fog[5].server[0] congestionRatio 0
scalar FogSequentialForward.fog[5].server[0] totalJobs 361308
scalar FogSequentialForward.fog[5].server[0] droppedJobsQueue 0
scalar FogSequentialForward.fog[5].server[0] droppedJobsTimout 0
scalar FogSequentialForward.fog[5].server[0] droppedJobsSLA 0
scalar FogSequentialForward.fog[5].server[0] droppedJobsTotal 0
scalar FogSequentialForward.fog[6].dispatcher localJobs 361775
scalar FogSequentialForward.fog[6].dispatcher internalJobs 361776
scalar FogSequentialForward.fog[6].dispatcher externalJobs 11
scalar FogSequentialForward.fog[6].dispatcher remoteJobs 12
scalar FogSequentialForward.fog[6].dispatcher probeQueries 0
scalar FogSequentialForward.fog[6].dispatcher probeAnswers 0
scalar FogSequentialForward.fog[6].dispatcher droppedJobsSLA 0
scalar FogSequentialForward.fog[6].dispatcher jobs_class_1 361787
scalar FogSequentialForward.fog[6].dispatcher remoteJobs_class_1 12
scalar FogSequentialForward.fog[6].dispatcher localJobs_class_1 361775
scalar FogSequentialForward.fog[6].server[0] rho 0.55938482284546
scalar FogSequentialForward.fog[6].server[0] congestionRatio 0
scalar FogSequentialForward.fog[6].server[0] totalJobs 361775
scalar FogSequentialForward.fog[6].server[0] droppedJobsQueue 0
scalar FogSequentialForward.fog[6].server[0] droppedJobsTimout 0
scalar FogSequentialForward.fog[6].server[0] droppedJobsSLA 2
scalar FogSequentialForward.fog[6].server[0] droppedJobsTotal 2
scalar FogSequentialForward.fog[7].dispatcher localJobs 361671
scalar FogSequentialForward.fog[7].dispatcher internalJobs 361678
scalar FogSequentialForward.fog[7].dispatcher externalJobs 7
scalar FogSequentialForward.fog[7].dispatcher remoteJobs 14
scalar FogSequentialForward.fog[7].dispatcher probeQueries 0
scalar FogSequentialForward.fog[7].dispatcher probeAnswers 0
scalar FogSequentialForward.fog[7].dispatcher droppedJobsSLA 0
scalar FogSequentialForward.fog[7].dispatcher jobs_class_1 361685
scalar FogSequentialForward.fog[7].dispatcher remoteJobs_class_1 14
scalar FogSequentialForward.fog[7].dispatcher localJobs_class_1 361671
scalar FogSequentialForward.fog[7].server[0] rho 0.55925810337067
scalar FogSequentialForward.fog[7].server[0] congestionRatio 0
scalar FogSequentialForward.fog[7].server[0] totalJobs 361671
scalar FogSequentialForward.fog[7].server[0] droppedJobsQueue 0
scalar FogSequentialForward.fog[7].server[0] droppedJobsTimout 0
scalar FogSequentialForward.fog[7].server[0] droppedJobsSLA 6
scalar FogSequentialForward.fog[7].server[0] droppedJobsTotal 6
scalar FogSequentialForward.fog[8].dispatcher localJobs 361128
scalar FogSequentialForward.fog[8].dispatcher internalJobs 361140
scalar FogSequentialForward.fog[8].dispatcher externalJobs 10
scalar FogSequentialForward.fog[8].dispatcher remoteJobs 22
scalar FogSequentialForward.fog[8].dispatcher probeQueries 0
scalar FogSequentialForward.fog[8].dispatcher probeAnswers 0
scalar FogSequentialForward.fog[8].dispatcher droppedJobsSLA 0
scalar FogSequentialForward.fog[8].dispatcher jobs_class_1 361150
scalar FogSequentialForward.fog[8].dispatcher remoteJobs_class_1 22
scalar FogSequentialForward.fog[8].dispatcher localJobs_class_1 361128
scalar FogSequentialForward.fog[8].server[0] rho 0.55843323469162
scalar FogSequentialForward.fog[8].server[0] congestionRatio 0
scalar FogSequentialForward.fog[8].server[0] totalJobs 361128
scalar FogSequentialForward.fog[8].server[0] droppedJobsQueue 0
scalar FogSequentialForward.fog[8].server[0] droppedJobsTimout 0
scalar FogSequentialForward.fog[8].server[0] droppedJobsSLA 4
scalar FogSequentialForward.fog[8].server[0] droppedJobsTotal 4
scalar FogSequentialForward.fog[9].dispatcher localJobs 360771
scalar FogSequentialForward.fog[9].dispatcher internalJobs 360762
scalar FogSequentialForward.fog[9].dispatcher externalJobs 16
scalar FogSequentialForward.fog[9].dispatcher remoteJobs 7
scalar FogSequentialForward.fog[9].dispatcher probeQueries 0
scalar FogSequentialForward.fog[9].dispatcher probeAnswers 0
scalar FogSequentialForward.fog[9].dispatcher droppedJobsSLA 0
scalar FogSequentialForward.fog[9].dispatcher jobs_class_1 360778
scalar FogSequentialForward.fog[9].dispatcher remoteJobs_class_1 7
scalar FogSequentialForward.fog[9].dispatcher localJobs_class_1 360771
scalar FogSequentialForward.fog[9].server[0] rho 0.55779939889908
scalar FogSequentialForward.fog[9].server[0] congestionRatio 0
scalar FogSequentialForward.fog[9].server[0] totalJobs 360771
scalar FogSequentialForward.fog[9].server[0] droppedJobsQueue 0
scalar FogSequentialForward.fog[9].server[0] droppedJobsTimout 0
scalar FogSequentialForward.fog[9].server[0] droppedJobsSLA 3
scalar FogSequentialForward.fog[9].server[0] droppedJobsTotal 3
scalar FogSequentialForward.fog[10].dispatcher localJobs 360370
scalar FogSequentialForward.fog[10].dispatcher internalJobs 360376
scalar FogSequentialForward.fog[10].dispatcher externalJobs 8
scalar FogSequentialForward.fog[10].dispatcher remoteJobs 14
scalar FogSequentialForward.fog[10].dispatcher probeQueries 0
scalar FogSequentialForward.fog[10].dispatcher probeAnswers 0
scalar FogSequentialForward.fog[10].dispatcher droppedJobsSLA 0
scalar FogSequentialForward.fog[10].dispatcher jobs_class_1 360384
scalar FogSequentialForward.fog[10].dispatcher remoteJobs_class_1 14
scalar FogSequentialForward.fog[10].dispatcher localJobs_class_1 360370
scalar FogSequentialForward.fog[10].server[0] rho 0.55723631381989
scalar FogSequentialForward.fog[10].server[0] congestionRatio 0
scalar FogSequentialForward.fog[10].server[0] totalJobs 360370
scalar FogSequentialForward.fog[10].server[0] droppedJobsQueue 0
scalar FogSequentialForward.fog[10].server[0] droppedJobsTimout 0
scalar FogSequentialForward.fog[10].server[0] droppedJobsSLA 0
scalar FogSequentialForward.fog[10].server[0] droppedJobsTotal 0
scalar FogSequentialForward.fog[11].dispatcher localJobs 360218
scalar FogSequentialForward.fog[11].dispatcher internalJobs 360205
scalar FogSequentialForward.fog[11].dispatcher externalJobs 20
scalar FogSequentialForward.fog[11].dispatcher remoteJobs 7
scalar FogSequentialForward.fog[11].dispatcher probeQueries 0
scalar FogSequentialForward.fog[11].dispatcher probeAnswers 0
scalar FogSequentialForward.fog[11].dispatcher droppedJobsSLA 0
scalar FogSequentialForward.fog[11].dispatcher jobs_class_1 360225
scalar FogSequentialForward.fog[11].dispatcher remoteJobs_class_1 7
scalar FogSequentialForward.fog[11].dispatcher localJobs_class_1 360218
scalar FogSequentialForward.fog[11].server[0] rho 0.55703574419022
scalar FogSequentialForward.fog[11].server[0] congestionRatio 0
scalar FogSequentialForward.fog[11].server[0] totalJobs 360218
scalar FogSequentialForward.fog[11].server[0] droppedJobsQueue 0
scalar FogSequentialForward.fog[11].server[0] droppedJobsTimout 0
scalar FogSequentialForward.fog[11].server[0] droppedJobsSLA 2
scalar FogSequentialForward.fog[11].server[0] droppedJobsTotal 2
scalar FogSequentialForward.fog[12].dispatcher localJobs 360223
scalar FogSequentialForward.fog[12].dispatcher internalJobs 360217
scalar FogSequentialForward.fog[12].dispatcher externalJobs 14
scalar FogSequentialForward.fog[12].dispatcher remoteJobs 8
scalar FogSequentialForward.fog[12].dispatcher probeQueries 0
scalar FogSequentialForward.fog[12].dispatcher probeAnswers 0
scalar FogSequentialForward.fog[12].dispatcher droppedJobsSLA 0
scalar FogSequentialForward.fog[12].dispatcher jobs_class_1 360231
scalar FogSequentialForward.fog[12].dispatcher remoteJobs_class_1 8
scalar FogSequentialForward.fog[12].dispatcher localJobs_class_1 360223
scalar FogSequentialForward.fog[12].server[0] rho 0.55699175596237
scalar FogSequentialForward.fog[12].server[0] congestionRatio 0
scalar FogSequentialForward.fog[12].server[0] totalJobs 360223
scalar FogSequentialForward.fog[12].server[0] droppedJobsQueue 0
scalar FogSequentialForward.fog[12].server[0] droppedJobsTimout 0
scalar FogSequentialForward.fog[12].server[0] droppedJobsSLA 0
scalar FogSequentialForward.fog[12].server[0] droppedJobsTotal 0
scalar FogSequentialForward.fog[13].dispatcher localJobs 360156
scalar FogSequentialForward.fog[13].dispatcher internalJobs 360162
scalar FogSequentialForward.fog[13].dispatcher externalJobs 9
scalar FogSequentialForward.fog[13].dispatcher remoteJobs 15
scalar FogSequentialForward.fog[13].dispatcher probeQueries 0
scalar FogSequentialForward.fog[13].dispatcher probeAnswers 0
scalar FogSequentialForward.fog[13].dispatcher droppedJobsSLA 0
scalar FogSequentialForward.fog[13].dispatcher jobs_class_1 360171
scalar FogSequentialForward.fog[13].dispatcher remoteJobs_class_1 15
scalar FogSequentialForward.fog[13].dispatcher localJobs_class_1 360156
scalar FogSequentialForward.fog[13].server[0] rho 0.55687570571899
scalar FogSequentialForward.fog[13].server[0] congestionRatio 0
scalar FogSequentialForward.fog[13].server[0] totalJobs 360156
scalar FogSequentialForward.fog[13].server[0] droppedJobsQueue 0
scalar FogSequentialForward.fog[13].server[0] droppedJobsTimout 0
scalar FogSequentialForward.fog[13].server[0] droppedJobsSLA 0
scalar FogSequentialForward.fog[13].server[0] droppedJobsTotal 0
scalar FogSequentialForward.fog[14].dispatcher localJobs 361688
scalar FogSequentialForward.fog[14].dispatcher internalJobs 361684
scalar FogSequentialForward.fog[14].dispatcher externalJobs 14
scalar FogSequentialForward.fog[14].dispatcher remoteJobs 10
scalar FogSequentialForward.fog[14].dispatcher probeQueries 0
scalar FogSequentialForward.fog[14].dispatcher probeAnswers 0
scalar FogSequentialForward.fog[14].dispatcher droppedJobsSLA 0
scalar FogSequentialForward.fog[14].dispatcher jobs_class_1 361698
scalar FogSequentialForward.fog[14].dispatcher remoteJobs_class_1 10
scalar FogSequentialForward.fog[14].dispatcher localJobs_class_1 361688
scalar FogSequentialForward.fog[14].server[0] rho 0.55925911664963
scalar FogSequentialForward.fog[14].server[0] congestionRatio 0
scalar FogSequentialForward.fog[14].server[0] totalJobs 361688
scalar FogSequentialForward.fog[14].server[0] droppedJobsQueue 0
scalar FogSequentialForward.fog[14].server[0] droppedJobsTimout 0
scalar FogSequentialForward.fog[14].server[0] droppedJobsSLA 2
scalar FogSequentialForward.fog[14].server[0] droppedJobsTotal 2
scalar FogSequentialForward.fog[15].dispatcher localJobs 360682
scalar FogSequentialForward.fog[15].dispatcher internalJobs 360681
scalar FogSequentialForward.fog[15].dispatcher externalJobs 11
scalar FogSequentialForward.fog[15].dispatcher remoteJobs 10
scalar FogSequentialForward.fog[15].dispatcher probeQueries 0
scalar FogSequentialForward.fog[15].dispatcher probeAnswers 0
scalar FogSequentialForward.fog[15].dispatcher droppedJobsSLA 0
scalar FogSequentialForward.fog[15].dispatcher jobs_class_1 360692
scalar FogSequentialForward.fog[15].dispatcher remoteJobs_class_1 10
scalar FogSequentialForward.fog[15].dispatcher localJobs_class_1 360682
scalar FogSequentialForward.fog[15].server[0] rho 0.55772578716278
scalar FogSequentialForward.fog[15].server[0] congestionRatio 0
scalar FogSequentialForward.fog[15].server[0] totalJobs 360682
scalar FogSequentialForward.fog[15].server[0] droppedJobsQueue 0
scalar FogSequentialForward.fog[15].server[0] droppedJobsTimout 0
scalar FogSequentialForward.fog[15].server[0] droppedJobsSLA 2
scalar FogSequentialForward.fog[15].server[0] droppedJobsTotal 2
scalar FogSequentialForward.fog[16].dispatcher localJobs 360062
scalar FogSequentialForward.fog[16].dispatcher internalJobs 360069
scalar FogSequentialForward.fog[16].dispatcher externalJobs 11
scalar FogSequentialForward.fog[16].dispatcher remoteJobs 18
scalar FogSequentialForward.fog[16].dispatcher probeQueries 0
scalar FogSequentialForward.fog[16].dispatcher probeAnswers 0
scalar FogSequentialForward.fog[16].dispatcher droppedJobsSLA 0
scalar FogSequentialForward.fog[16].dispatcher jobs_class_1 360080
scalar FogSequentialForward.fog[16].dispatcher remoteJobs_class_1 18
scalar FogSequentialForward.fog[16].dispatcher localJobs_class_1 360062
scalar FogSequentialForward.fog[16].server[0] rho 0.55678117275238
scalar FogSequentialForward.fog[16].server[0] congestionRatio 0
scalar FogSequentialForward.fog[16].server[0] totalJobs 360062
scalar FogSequentialForward.fog[16].server[0] droppedJobsQueue 0
scalar FogSequentialForward.fog[16].server[0] droppedJobsTimout 0
scalar FogSequentialForward.fog[16].server[0] droppedJobsSLA 2
scalar FogSequentialForward.fog[16].server[0] droppedJobsTotal 2
scalar FogSequentialForward.fog[17].dispatcher localJobs 360192
scalar FogSequentialForward.fog[17].dispatcher internalJobs 360190
scalar FogSequentialForward.fog[17].dispatcher externalJobs 10
scalar FogSequentialForward.fog[17].dispatcher remoteJobs 8
scalar FogSequentialForward.fog[17].dispatcher probeQueries 0
scalar FogSequentialForward.fog[17].dispatcher probeAnswers 0
scalar FogSequentialForward.fog[17].dispatcher droppedJobsSLA 0
scalar FogSequentialForward.fog[17].dispatcher jobs_class_1 360200
scalar FogSequentialForward.fog[17].dispatcher remoteJobs_class_1 8
scalar FogSequentialForward.fog[17].dispatcher localJobs_class_1 360192
scalar FogSequentialForward.fog[17].server[0] rho 0.55698418617249
scalar FogSequentialForward.fog[17].server[0] congestionRatio 0
scalar FogSequentialForward.fog[17].server[0] totalJobs 360192
scalar FogSequentialForward.fog[17].server[0] droppedJobsQueue 0
scalar FogSequentialForward.fog[17].server[0] droppedJobsTimout 0
scalar FogSequentialForward.fog[17].server[0] droppedJobsSLA 2
scalar FogSequentialForward.fog[17].server[0] droppedJobsTotal 2
scalar FogSequentialForward.fog[18].dispatcher localJobs 360513
scalar FogSequentialForward.fog[18].dispatcher internalJobs 360511
scalar FogSequentialForward.fog[18].dispatcher externalJobs 12
scalar FogSequentialForward.fog[18].dispatcher remoteJobs 10
scalar FogSequentialForward.fog[18].dispatcher probeQueries 0
scalar FogSequentialForward.fog[18].dispatcher probeAnswers 0
scalar FogSequentialForward.fog[18].dispatcher droppedJobsSLA 0
scalar FogSequentialForward.fog[18].dispatcher jobs_class_1 360523
scalar FogSequentialForward.fog[18].dispatcher remoteJobs_class_1 10
scalar FogSequentialForward.fog[18].dispatcher localJobs_class_1 360513
scalar FogSequentialForward.fog[18].server[0] rho 0.55745100975037
scalar FogSequentialForward.fog[18].server[0] congestionRatio 0
scalar FogSequentialForward.fog[18].server[0] totalJobs 360513
scalar FogSequentialForward.fog[18].server[0] droppedJobsQueue 0
scalar FogSequentialForward.fog[18].server[0] droppedJobsTimout 0
scalar FogSequentialForward.fog[18].server[0] droppedJobsSLA 5
scalar FogSequentialForward.fog[18].server[0] droppedJobsTotal 5
scalar FogSequentialForward.fog[19].dispatcher localJobs 360726
scalar FogSequentialForward.fog[19].dispatcher internalJobs 360725
scalar FogSequentialForward.fog[19].dispatcher externalJobs 12
scalar FogSequentialForward.fog[19].dispatcher remoteJobs 11
scalar FogSequentialForward.fog[19].dispatcher probeQueries 0
scalar FogSequentialForward.fog[19].dispatcher probeAnswers 0
scalar FogSequentialForward.fog[19].dispatcher droppedJobsSLA 0
scalar FogSequentialForward.fog[19].dispatcher jobs_class_1 360737
scalar FogSequentialForward.fog[19].dispatcher remoteJobs_class_1 11
scalar FogSequentialForward.fog[19].dispatcher localJobs_class_1 360726
scalar FogSequentialForward.fog[19].server[0] rho 0.55779421329498
scalar FogSequentialForward.fog[19].server[0] congestionRatio 0
scalar FogSequentialForward.fog[19].server[0] totalJobs 360726
scalar FogSequentialForward.fog[19].server[0] droppedJobsQueue 0
scalar FogSequentialForward.fog[19].server[0] droppedJobsTimout 0
scalar FogSequentialForward.fog[19].server[0] droppedJobsSLA 4
scalar FogSequentialForward.fog[19].server[0] droppedJobsTotal 4
scalar FogSequentialForward.fog[20].dispatcher localJobs 359261
scalar FogSequentialForward.fog[20].dispatcher internalJobs 359267
scalar FogSequentialForward.fog[20].dispatcher externalJobs 18
scalar FogSequentialForward.fog[20].dispatcher remoteJobs 24
scalar FogSequentialForward.fog[20].dispatcher probeQueries 0
scalar FogSequentialForward.fog[20].dispatcher probeAnswers 0
scalar FogSequentialForward.fog[20].dispatcher droppedJobsSLA 0
scalar FogSequentialForward.fog[20].dispatcher jobs_class_1 359285
scalar FogSequentialForward.fog[20].dispatcher remoteJobs_class_1 24
scalar FogSequentialForward.fog[20].dispatcher localJobs_class_1 359261
scalar FogSequentialForward.fog[20].server[0] rho 0.55551564693451
scalar FogSequentialForward.fog[20].server[0] congestionRatio 0
scalar FogSequentialForward.fog[20].server[0] totalJobs 359261
scalar FogSequentialForward.fog[20].server[0] droppedJobsQueue 0
scalar FogSequentialForward.fog[20].server[0] droppedJobsTimout 0
scalar FogSequentialForward.fog[20].server[0] droppedJobsSLA 5
scalar FogSequentialForward.fog[20].server[0] droppedJobsTotal 5
scalar FogSequentialForward.fog[21].dispatcher localJobs 359729
scalar FogSequentialForward.fog[21].dispatcher internalJobs 359723
scalar FogSequentialForward.fog[21].dispatcher externalJobs 13
scalar FogSequentialForward.fog[21].dispatcher remoteJobs 7
scalar FogSequentialForward.fog[21].dispatcher probeQueries 0
scalar FogSequentialForward.fog[21].dispatcher probeAnswers 0
scalar FogSequentialForward.fog[21].dispatcher droppedJobsSLA 0
scalar FogSequentialForward.fog[21].dispatcher jobs_class_1 359736
scalar FogSequentialForward.fog[21].dispatcher remoteJobs_class_1 7
scalar FogSequentialForward.fog[21].dispatcher localJobs_class_1 359729
scalar FogSequentialForward.fog[21].server[0] rho 0.55625146627426
scalar FogSequentialForward.fog[21].server[0] congestionRatio 0
scalar FogSequentialForward.fog[21].server[0] totalJobs 359729
scalar FogSequentialForward.fog[21].server[0] droppedJobsQueue 0
scalar FogSequentialForward.fog[21].server[0] droppedJobsTimout 0
scalar FogSequentialForward.fog[21].server[0] droppedJobsSLA 4
scalar FogSequentialForward.fog[21].server[0] droppedJobsTotal 4
scalar FogSequentialForward.fog[22].dispatcher localJobs 360488
scalar FogSequentialForward.fog[22].dispatcher internalJobs 360492
scalar FogSequentialForward.fog[22].dispatcher externalJobs 9
scalar FogSequentialForward.fog[22].dispatcher remoteJobs 13
scalar FogSequentialForward.fog[22].dispatcher probeQueries 0
scalar FogSequentialForward.fog[22].dispatcher probeAnswers 0
scalar FogSequentialForward.fog[22].dispatcher droppedJobsSLA 0
scalar FogSequentialForward.fog[22].dispatcher jobs_class_1 360501
scalar FogSequentialForward.fog[22].dispatcher remoteJobs_class_1 13
scalar FogSequentialForward.fog[22].dispatcher localJobs_class_1 360488
scalar FogSequentialForward.fog[22].server[0] rho 0.55744779109955
scalar FogSequentialForward.fog[22].server[0] congestionRatio 0
scalar FogSequentialForward.fog[22].server[0] totalJobs 360488
scalar FogSequentialForward.fog[22].server[0] droppedJobsQueue 0
scalar FogSequentialForward.fog[22].server[0] droppedJobsTimout 0
scalar FogSequentialForward.fog[22].server[0] droppedJobsSLA 1
scalar FogSequentialForward.fog[22].server[0] droppedJobsTotal 1
scalar FogSequentialForward.fog[23].dispatcher localJobs 361680
scalar FogSequentialForward.fog[23].dispatcher internalJobs 361684
scalar FogSequentialForward.fog[23].dispatcher externalJobs 12
scalar FogSequentialForward.fog[23].dispatcher remoteJobs 16
scalar FogSequentialForward.fog[23].dispatcher probeQueries 0
scalar FogSequentialForward.fog[23].dispatcher probeAnswers 0
scalar FogSequentialForward.fog[23].dispatcher droppedJobsSLA 0
scalar FogSequentialForward.fog[23].dispatcher jobs_class_1 361696
scalar FogSequentialForward.fog[23].dispatcher remoteJobs_class_1 16
scalar FogSequentialForward.fog[23].dispatcher localJobs_class_1 361680
scalar FogSequentialForward.fog[23].server[0] rho 0.55925768613815
scalar FogSequentialForward.fog[23].server[0] congestionRatio 0
scalar FogSequentialForward.fog[23].server[0] totalJobs 361680
scalar FogSequentialForward.fog[23].server[0] droppedJobsQueue 0
scalar FogSequentialForward.fog[23].server[0] droppedJobsTimout 0
scalar FogSequentialForward.fog[23].server[0] droppedJobsSLA 6
scalar FogSequentialForward.fog[23].server[0] droppedJobsTotal 6
scalar FogSequentialForward.fog[24].dispatcher localJobs 361134
scalar FogSequentialForward.fog[24].dispatcher internalJobs 361118
scalar FogSequentialForward.fog[24].dispatcher externalJobs 20
scalar FogSequentialForward.fog[24].dispatcher remoteJobs 4
scalar FogSequentialForward.fog[24].dispatcher probeQueries 0
scalar FogSequentialForward.fog[24].dispatcher probeAnswers 0
scalar FogSequentialForward.fog[24].dispatcher droppedJobsSLA 0
scalar FogSequentialForward.fog[24].dispatcher jobs_class_1 361138
scalar FogSequentialForward.fog[24].dispatcher remoteJobs_class_1 4
scalar FogSequentialForward.fog[24].dispatcher localJobs_class_1 361134
scalar FogSequentialForward.fog[24].server[0] rho 0.55840027332306
scalar FogSequentialForward.fog[24].server[0] congestionRatio 0
scalar FogSequentialForward.fog[24].server[0] totalJobs 361134
scalar FogSequentialForward.fog[24].server[0] droppedJobsQueue 0
scalar FogSequentialForward.fog[24].server[0] droppedJobsTimout 0
scalar FogSequentialForward.fog[24].server[0] droppedJobsSLA 0
scalar FogSequentialForward.fog[24].server[0] droppedJobsTotal 0
scalar FogSequentialForward.fog[25].dispatcher localJobs 360741
scalar FogSequentialForward.fog[25].dispatcher internalJobs 360734
scalar FogSequentialForward.fog[25].dispatcher externalJobs 13
scalar FogSequentialForward.fog[25].dispatcher remoteJobs 6
scalar FogSequentialForward.fog[25].dispatcher probeQueries 0
scalar FogSequentialForward.fog[25].dispatcher probeAnswers 0
scalar FogSequentialForward.fog[25].dispatcher droppedJobsSLA 0
scalar FogSequentialForward.fog[25].dispatcher jobs_class_1 360747
scalar FogSequentialForward.fog[25].dispatcher remoteJobs_class_1 6
scalar FogSequentialForward.fog[25].dispatcher localJobs_class_1 360741
scalar FogSequentialForward.fog[25].server[0] rho 0.55779260396957
scalar FogSequentialForward.fog[25].server[0] congestionRatio 0
scalar FogSequentialForward.fog[25].server[0] totalJobs 360741
scalar FogSequentialForward.fog[25].server[0] droppedJobsQueue 0
scalar FogSequentialForward.fog[25].server[0] droppedJobsTimout 0
scalar FogSequentialForward.fog[25].server[0] droppedJobsSLA 3
scalar FogSequentialForward.fog[25].server[0] droppedJobsTotal 3
scalar FogSequentialForward.fog[26].dispatcher localJobs 360950
scalar FogSequentialForward.fog[26].dispatcher internalJobs 360949
scalar FogSequentialForward.fog[26].dispatcher externalJobs 9
scalar FogSequentialForward.fog[26].dispatcher remoteJobs 8
scalar FogSequentialForward.fog[26].dispatcher probeQueries 0
scalar FogSequentialForward.fog[26].dispatcher probeAnswers 0
scalar FogSequentialForward.fog[26].dispatcher droppedJobsSLA 0
scalar FogSequentialForward.fog[26].dispatcher jobs_class_1 360958
scalar FogSequentialForward.fog[26].dispatcher remoteJobs_class_1 8
scalar FogSequentialForward.fog[26].dispatcher localJobs_class_1 360950
scalar FogSequentialForward.fog[26].server[0] rho 0.55814617872238
scalar FogSequentialForward.fog[26].server[0] congestionRatio 0
scalar FogSequentialForward.fog[26].server[0] totalJobs 360950
scalar FogSequentialForward.fog[26].server[0] droppedJobsQueue 0
scalar FogSequentialForward.fog[26].server[0] droppedJobsTimout 0
scalar FogSequentialForward.fog[26].server[0] droppedJobsSLA 3
scalar FogSequentialForward.fog[26].server[0] droppedJobsTotal 3
scalar FogSequentialForward.fog[27].dispatcher localJobs 361341
scalar FogSequentialForward.fog[27].dispatcher internalJobs 361341
scalar FogSequentialForward.fog[27].dispatcher externalJobs 7
scalar FogSequentialForward.fog[27].dispatcher remoteJobs 7
scalar FogSequentialForward.fog[27].dispatcher probeQueries 0
scalar FogSequentialForward.fog[27].dispatcher probeAnswers 0
scalar FogSequentialForward.fog[27].dispatcher droppedJobsSLA 0
scalar FogSequentialForward.fog[27].dispatcher jobs_class_1 361348
scalar FogSequentialForward.fog[27].dispatcher remoteJobs_class_1 7
scalar FogSequentialForward.fog[27].dispatcher localJobs_class_1 361341
scalar FogSequentialForward.fog[27].server[0] rho 0.55871683359146
scalar FogSequentialForward.fog[27].server[0] congestionRatio 0
scalar FogSequentialForward.fog[27].server[0] totalJobs 361341
scalar FogSequentialForward.fog[27].server[0] droppedJobsQueue 0
scalar FogSequentialForward.fog[27].server[0] droppedJobsTimout 0
scalar FogSequentialForward.fog[27].server[0] droppedJobsSLA 1
scalar FogSequentialForward.fog[27].server[0] droppedJobsTotal 1
scalar FogSequentialForward.fog[28].dispatcher localJobs 360262
scalar FogSequentialForward.fog[28].dispatcher internalJobs 360263
scalar FogSequentialForward.fog[28].dispatcher externalJobs 13
scalar FogSequentialForward.fog[28].dispatcher remoteJobs 14
scalar FogSequentialForward.fog[28].dispatcher probeQueries 0
scalar FogSequentialForward.fog[28].dispatcher probeAnswers 0
scalar FogSequentialForward.fog[28].dispatcher droppedJobsSLA 0
scalar FogSequentialForward.fog[28].dispatcher jobs_class_1 360276
scalar FogSequentialForward.fog[28].dispatcher remoteJobs_class_1 14
scalar FogSequentialForward.fog[28].dispatcher localJobs_class_1 360262
scalar FogSequentialForward.fog[28].server[0] rho 0.55704468488693
scalar FogSequentialForward.fog[28].server[0] congestionRatio 0
scalar FogSequentialForward.fog[28].server[0] totalJobs 360262
scalar FogSequentialForward.fog[28].server[0] droppedJobsQueue 0
scalar FogSequentialForward.fog[28].server[0] droppedJobsTimout 0
scalar FogSequentialForward.fog[28].server[0] droppedJobsSLA 5
scalar FogSequentialForward.fog[28].server[0] droppedJobsTotal 5
scalar FogSequentialForward.fog[29].dispatcher localJobs 361307
scalar FogSequentialForward.fog[29].dispatcher internalJobs 361308
scalar FogSequentialForward.fog[29].dispatcher externalJobs 9
scalar FogSequentialForward.fog[29].dispatcher remoteJobs 10
scalar FogSequentialForward.fog[29].dispatcher probeQueries 0
scalar FogSequentialForward.fog[29].dispatcher probeAnswers 0
scalar FogSequentialForward.fog[29].dispatcher droppedJobsSLA 0
scalar FogSequentialForward.fog[29].dispatcher jobs_class_1 361317
scalar FogSequentialForward.fog[29].dispatcher remoteJobs_class_1 10
scalar FogSequentialForward.fog[29].dispatcher localJobs_class_1 361307
scalar FogSequentialForward.fog[29].server[0] rho 0.55867969989777
scalar FogSequentialForward.fog[29].server[0] congestionRatio 0
scalar FogSequentialForward.fog[29].server[0] totalJobs 361307
scalar FogSequentialForward.fog[29].server[0] droppedJobsQueue 0
scalar FogSequentialForward.fog[29].server[0] droppedJobsTimout 0
scalar FogSequentialForward.fog[29].server[0] droppedJobsSLA 2
scalar FogSequentialForward.fog[29].server[0] droppedJobsTotal 2
scalar FogSequentialForward.fog[30].dispatcher localJobs 360460
scalar FogSequentialForward.fog[30].dispatcher internalJobs 360456
scalar FogSequentialForward.fog[30].dispatcher externalJobs 15
scalar FogSequentialForward.fog[30].dispatcher remoteJobs 11
scalar FogSequentialForward.fog[30].dispatcher probeQueries 0
scalar FogSequentialForward.fog[30].dispatcher probeAnswers 0
scalar FogSequentialForward.fog[30].dispatcher droppedJobsSLA 0
scalar FogSequentialForward.fog[30].dispatcher jobs_class_1 360471
scalar FogSequentialForward.fog[30].dispatcher remoteJobs_class_1 11
scalar FogSequentialForward.fog[30].dispatcher localJobs_class_1 360460
scalar FogSequentialForward.fog[30].server[0] rho 0.55740064382553
scalar FogSequentialForward.fog[30].server[0] congestionRatio 0
scalar FogSequentialForward.fog[30].server[0] totalJobs 360460
scalar FogSequentialForward.fog[30].server[0] droppedJobsQueue 0
scalar FogSequentialForward.fog[30].server[0] droppedJobsTimout 0
scalar FogSequentialForward.fog[30].server[0] droppedJobsSLA 1
scalar FogSequentialForward.fog[30].server[0] droppedJobsTotal 1
scalar FogSequentialForward.fog[31].dispatcher localJobs 360266
scalar FogSequentialForward.fog[31].dispatcher internalJobs 360263
scalar FogSequentialForward.fog[31].dispatcher externalJobs 11
scalar FogSequentialForward.fog[31].dispatcher remoteJobs 8
scalar FogSequentialForward.fog[31].dispatcher probeQueries 0
scalar FogSequentialForward.fog[31].dispatcher probeAnswers 0
scalar FogSequentialForward.fog[31].dispatcher droppedJobsSLA 0
scalar FogSequentialForward.fog[31].dispatcher jobs_class_1 360274
scalar FogSequentialForward.fog[31].dispatcher remoteJobs_class_1 8
scalar FogSequentialForward.fog[31].dispatcher localJobs_class_1 360266
scalar FogSequentialForward.fog[31].server[0] rho 0.55708658695221
scalar FogSequentialForward.fog[31].server[0] congestionRatio 0
scalar FogSequentialForward.fog[31].server[0] totalJobs 360266
scalar FogSequentialForward.fog[31].server[0] droppedJobsQueue 0
scalar FogSequentialForward.fog[31].server[0] droppedJobsTimout 0
scalar FogSequentialForward.fog[31].server[0] droppedJobsSLA 4
scalar FogSequentialForward.fog[31].server[0] droppedJobsTotal 4
scalar FogSequentialForward.fog[32].dispatcher localJobs 360171
scalar FogSequentialForward.fog[32].dispatcher internalJobs 360181
scalar FogSequentialForward.fog[32].dispatcher externalJobs 8
scalar FogSequentialForward.fog[32].dispatcher remoteJobs 18
scalar FogSequentialForward.fog[32].dispatcher probeQueries 0
scalar FogSequentialForward.fog[32].dispatcher probeAnswers 0
scalar FogSequentialForward.fog[32].dispatcher droppedJobsSLA 0
scalar FogSequentialForward.fog[32].dispatcher jobs_class_1 360189
scalar FogSequentialForward.fog[32].dispatcher remoteJobs_class_1 18
scalar FogSequentialForward.fog[32].dispatcher localJobs_class_1 360171
scalar FogSequentialForward.fog[32].server[0] rho 0.55694651603699
scalar FogSequentialForward.fog[32].server[0] congestionRatio 0
scalar FogSequentialForward.fog[32].server[0] totalJobs 360171
scalar FogSequentialForward.fog[32].server[0] droppedJobsQueue 0
scalar FogSequentialForward.fog[32].server[0] droppedJobsTimout 0
scalar FogSequentialForward.fog[32].server[0] droppedJobsSLA 7
scalar FogSequentialForward.fog[32].server[0] droppedJobsTotal 7
scalar FogSequentialForward.fog[33].dispatcher localJobs 360767
scalar FogSequentialForward.fog[33].dispatcher internalJobs 360765
scalar FogSequentialForward.fog[33].dispatcher externalJobs 14
scalar FogSequentialForward.fog[33].dispatcher remoteJobs 12
scalar FogSequentialForward.fog[33].dispatcher probeQueries 0
scalar FogSequentialForward.fog[33].dispatcher probeAnswers 0
scalar FogSequentialForward.fog[33].dispatcher droppedJobsSLA 0
scalar FogSequentialForward.fog[33].dispatcher jobs_class_1 360779
scalar FogSequentialForward.fog[33].dispatcher remoteJobs_class_1 12
scalar FogSequentialForward.fog[33].dispatcher localJobs_class_1 360767
scalar FogSequentialForward.fog[33].server[0] rho 0.55786180496216
scalar FogSequentialForward.fog[33].server[0] congestionRatio 0
scalar FogSequentialForward.fog[33].server[0] totalJobs 360767
scalar FogSequentialForward.fog[33].server[0] droppedJobsQueue 0
scalar FogSequentialForward.fog[33].server[0] droppedJobsTimout 0
scalar FogSequentialForward.fog[33].server[0] droppedJobsSLA 1
scalar FogSequentialForward.fog[33].server[0] droppedJobsTotal 1
scalar FogSequentialForward.fog[34].dispatcher localJobs 360520
scalar FogSequentialForward.fog[34].dispatcher internalJobs 360527
scalar FogSequentialForward.fog[34].dispatcher externalJobs 6
scalar FogSequentialForward.fog[34].dispatcher remoteJobs 13
scalar FogSequentialForward.fog[34].dispatcher probeQueries 0
scalar FogSequentialForward.fog[34].dispatcher probeAnswers 0
scalar FogSequentialForward.fog[34].dispatcher droppedJobsSLA 0
scalar FogSequentialForward.fog[34].dispatcher jobs_class_1 360533
scalar FogSequentialForward.fog[34].dispatcher remoteJobs_class_1 13
scalar FogSequentialForward.fog[34].dispatcher localJobs_class_1 360520
scalar FogSequentialForward.fog[34].server[0] rho 0.55749070644379
scalar FogSequentialForward.fog[34].server[0] congestionRatio 0
scalar FogSequentialForward.fog[34].server[0] totalJobs 360520
scalar FogSequentialForward.fog[34].server[0] droppedJobsQueue 0
scalar FogSequentialForward.fog[34].server[0] droppedJobsTimout 0
scalar FogSequentialForward.fog[34].server[0] droppedJobsSLA 0
scalar FogSequentialForward.fog[34].server[0] droppedJobsTotal 0
scalar FogSequentialForward.fog[35].dispatcher localJobs 360706
scalar FogSequentialForward.fog[35].dispatcher internalJobs 360700
scalar FogSequentialForward.fog[35].dispatcher externalJobs 17
scalar FogSequentialForward.fog[35].dispatcher remoteJobs 11
scalar FogSequentialForward.fog[35].dispatcher probeQueries 0
scalar FogSequentialForward.fog[35].dispatcher probeAnswers 0
scalar FogSequentialForward.fog[35].dispatcher droppedJobsSLA 0
scalar FogSequentialForward.fog[35].dispatcher jobs_class_1 360717
scalar FogSequentialForward.fog[35].dispatcher remoteJobs_class_1 11
scalar FogSequentialForward.fog[35].dispatcher localJobs_class_1 360706
scalar FogSequentialForward.fog[35].server[0] rho 0.55773603916168
scalar FogSequentialForward.fog[35].server[0] congestionRatio 0
scalar FogSequentialForward.fog[35].server[0] totalJobs 360706
scalar FogSequentialForward.fog[35].server[0] droppedJobsQueue 0
scalar FogSequentialForward.fog[35].server[0] droppedJobsTimout 0
scalar FogSequentialForward.fog[35].server[0] droppedJobsSLA 1
scalar FogSequentialForward.fog[35].server[0] droppedJobsTotal 1
scalar FogSequentialForward.fog[36].dispatcher localJobs 360947
scalar FogSequentialForward.fog[36].dispatcher internalJobs 360950
scalar FogSequentialForward.fog[36].dispatcher externalJobs 8
scalar FogSequentialForward.fog[36].dispatcher remoteJobs 11
scalar FogSequentialForward.fog[36].dispatcher probeQueries 0
scalar FogSequentialForward.fog[36].dispatcher probeAnswers 0
scalar FogSequentialForward.fog[36].dispatcher droppedJobsSLA 0
scalar FogSequentialForward.fog[36].dispatcher jobs_class_1 360958
scalar FogSequentialForward.fog[36].dispatcher remoteJobs_class_1 11
scalar FogSequentialForward.fog[36].dispatcher localJobs_class_1 360947
scalar FogSequentialForward.fog[36].server[0] rho 0.55811643600464
scalar FogSequentialForward.fog[36].server[0] congestionRatio 0
scalar FogSequentialForward.fog[36].server[0] totalJobs 360947
scalar FogSequentialForward.fog[36].server[0] droppedJobsQueue 0
scalar FogSequentialForward.fog[36].server[0] droppedJobsTimout 0
scalar FogSequentialForward.fog[36].server[0] droppedJobsSLA 4
scalar FogSequentialForward.fog[36].server[0] droppedJobsTotal 4
scalar FogSequentialForward.fog[37].dispatcher localJobs 361420
scalar FogSequentialForward.fog[37].dispatcher internalJobs 361420
scalar FogSequentialForward.fog[37].dispatcher externalJobs 10
scalar FogSequentialForward.fog[37].dispatcher remoteJobs 10
scalar FogSequentialForward.fog[37].dispatcher probeQueries 0
scalar FogSequentialForward.fog[37].dispatcher probeAnswers 0
scalar FogSequentialForward.fog[37].dispatcher droppedJobsSLA 0
scalar FogSequentialForward.fog[37].dispatcher jobs_class_1 361430
scalar FogSequentialForward.fog[37].dispatcher remoteJobs_class_1 10
scalar FogSequentialForward.fog[37].dispatcher localJobs_class_1 361420
scalar FogSequentialForward.fog[37].server[0] rho 0.55886781215668
scalar FogSequentialForward.fog[37].server[0] congestionRatio 0
scalar FogSequentialForward.fog[37].server[0] totalJobs 361420
scalar FogSequentialForward.fog[37].server[0] droppedJobsQueue 0
scalar FogSequentialForward.fog[37].server[0] droppedJobsTimout 0
scalar FogSequentialForward.fog[37].server[0] droppedJobsSLA 2
scalar FogSequentialForward.fog[37].server[0] droppedJobsTotal 2
scalar FogSequentialForward.fog[38].dispatcher localJobs 359566
scalar FogSequentialForward.fog[38].dispatcher internalJobs 359562
scalar FogSequentialForward.fog[38].dispatcher externalJobs 15
scalar FogSequentialForward.fog[38].dispatcher remoteJobs 11
scalar FogSequentialForward.fog[38].dispatcher probeQueries 0
scalar FogSequentialForward.fog[38].dispatcher probeAnswers 0
scalar FogSequentialForward.fog[38].dispatcher droppedJobsSLA 0
scalar FogSequentialForward.fog[38].dispatcher jobs_class_1 359577
scalar FogSequentialForward.fog[38].dispatcher remoteJobs_class_1 11
scalar FogSequentialForward.fog[38].dispatcher localJobs_class_1 359566
scalar FogSequentialForward.fog[38].server[0] rho 0.55602186918259
scalar FogSequentialForward.fog[38].server[0] congestionRatio 0
scalar FogSequentialForward.fog[38].server[0] totalJobs 359566
scalar FogSequentialForward.fog[38].server[0] droppedJobsQueue 0
scalar FogSequentialForward.fog[38].server[0] droppedJobsTimout 0
scalar FogSequentialForward.fog[38].server[0] droppedJobsSLA 5
scalar FogSequentialForward.fog[38].server[0] droppedJobsTotal 5
scalar FogSequentialForward.fog[39].dispatcher localJobs 360383
scalar FogSequentialForward.fog[39].dispatcher internalJobs 360390
scalar FogSequentialForward.fog[39].dispatcher externalJobs 12
scalar FogSequentialForward.fog[39].dispatcher remoteJobs 19
scalar FogSequentialForward.fog[39].dispatcher probeQueries 0
scalar FogSequentialForward.fog[39].dispatcher probeAnswers 0
scalar FogSequentialForward.fog[39].dispatcher droppedJobsSLA 0
scalar FogSequentialForward.fog[39].dispatcher jobs_class_1 360402
scalar FogSequentialForward.fog[39].dispatcher remoteJobs_class_1 19
scalar FogSequentialForward.fog[39].dispatcher localJobs_class_1 360383
scalar FogSequentialForward.fog[39].server[0] rho 0.55724114179611
scalar FogSequentialForward.fog[39].server[0] congestionRatio 0
scalar FogSequentialForward.fog[39].server[0] totalJobs 360383
scalar FogSequentialForward.fog[39].server[0] droppedJobsQueue 0
scalar FogSequentialForward.fog[39].server[0] droppedJobsTimout 0
scalar FogSequentialForward.fog[39].server[0] droppedJobsSLA 6
scalar FogSequentialForward.fog[39].server[0] droppedJobsTotal 6
scalar FogSequentialForward.fog[40].dispatcher localJobs 361532
scalar FogSequentialForward.fog[40].dispatcher internalJobs 361523
scalar FogSequentialForward.fog[40].dispatcher externalJobs 17
scalar FogSequentialForward.fog[40].dispatcher remoteJobs 8
scalar FogSequentialForward.fog[40].dispatcher probeQueries 0
scalar FogSequentialForward.fog[40].dispatcher probeAnswers 0
scalar FogSequentialForward.fog[40].dispatcher droppedJobsSLA 0
scalar FogSequentialForward.fog[40].dispatcher jobs_class_1 361540
scalar FogSequentialForward.fog[40].dispatcher remoteJobs_class_1 8
scalar FogSequentialForward.fog[40].dispatcher localJobs_class_1 361532
scalar FogSequentialForward.fog[40].server[0] rho 0.5590488910675
scalar FogSequentialForward.fog[40].server[0] congestionRatio 0
scalar FogSequentialForward.fog[40].server[0] totalJobs 361532
scalar FogSequentialForward.fog[40].server[0] droppedJobsQueue 0
scalar FogSequentialForward.fog[40].server[0] droppedJobsTimout 0
scalar FogSequentialForward.fog[40].server[0] droppedJobsSLA 3
scalar FogSequentialForward.fog[40].server[0] droppedJobsTotal 3
scalar FogSequentialForward.fog[41].dispatcher localJobs 359497
scalar FogSequentialForward.fog[41].dispatcher internalJobs 359492
scalar FogSequentialForward.fog[41].dispatcher externalJobs 13
scalar FogSequentialForward.fog[41].dispatcher remoteJobs 8
scalar FogSequentialForward.fog[41].dispatcher probeQueries 0
scalar FogSequentialForward.fog[41].dispatcher probeAnswers 0
scalar FogSequentialForward.fog[41].dispatcher droppedJobsSLA 0
scalar FogSequentialForward.fog[41].dispatcher jobs_class_1 359505
scalar FogSequentialForward.fog[41].dispatcher remoteJobs_class_1 8
scalar FogSequentialForward.fog[41].dispatcher localJobs_class_1 359497
scalar FogSequentialForward.fog[41].server[0] rho 0.55588734149933
scalar FogSequentialForward.fog[41].server[0] congestionRatio 0
scalar FogSequentialForward.fog[41].server[0] totalJobs 359497
scalar FogSequentialForward.fog[41].server[0] droppedJobsQueue 0
scalar FogSequentialForward.fog[41].server[0] droppedJobsTimout 0
scalar FogSequentialForward.fog[41].server[0] droppedJobsSLA 4
scalar FogSequentialForward.fog[41].server[0] droppedJobsTotal 4
scalar FogSequentialForward.fog[42].dispatcher localJobs 359687
scalar FogSequentialForward.fog[42].dispatcher internalJobs 359687
scalar FogSequentialForward.fog[42].dispatcher externalJobs 16
scalar FogSequentialForward.fog[42].dispatcher remoteJobs 16
scalar FogSequentialForward.fog[42].dispatcher probeQueries 0
scalar FogSequentialForward.fog[42].dispatcher probeAnswers 0
scalar FogSequentialForward.fog[42].dispatcher droppedJobsSLA 0
scalar FogSequentialForward.fog[42].dispatcher jobs_class_1 359703
scalar FogSequentialForward.fog[42].dispatcher remoteJobs_class_1 16
scalar FogSequentialForward.fog[42].dispatcher localJobs_class_1 359687
scalar FogSequentialForward.fog[42].server[0] rho 0.55621582269669
scalar FogSequentialForward.fog[42].server[0] congestionRatio 0
scalar FogSequentialForward.fog[42].server[0] totalJobs 359687
scalar FogSequentialForward.fog[42].server[0] droppedJobsQueue 0
scalar FogSequentialForward.fog[42].server[0] droppedJobsTimout 0
scalar FogSequentialForward.fog[42].server[0] droppedJobsSLA 6
scalar FogSequentialForward.fog[42].server[0] droppedJobsTotal 6
scalar FogSequentialForward.fog[43].dispatcher localJobs 359476
scalar FogSequentialForward.fog[43].dispatcher internalJobs 359463
scalar FogSequentialForward.fog[43].dispatcher externalJobs 20
scalar FogSequentialForward.fog[43].dispatcher remoteJobs 7
scalar FogSequentialForward.fog[43].dispatcher probeQueries 0
scalar FogSequentialForward.fog[43].dispatcher probeAnswers 0
scalar FogSequentialForward.fog[43].dispatcher droppedJobsSLA 0
scalar FogSequentialForward.fog[43].dispatcher jobs_class_1 359483
scalar FogSequentialForward.fog[43].dispatcher remoteJobs_class_1 7
scalar FogSequentialForward.fog[43].dispatcher localJobs_class_1 359476
scalar FogSequentialForward.fog[43].server[0] rho 0.55583626031876
scalar FogSequentialForward.fog[43].server[0] congestionRatio 0
scalar FogSequentialForward.fog[43].server[0] totalJobs 359476
scalar FogSequentialForward.fog[43].server[0] droppedJobsQueue 0
scalar FogSequentialForward.fog[43].server[0] droppedJobsTimout 0
scalar FogSequentialForward.fog[43].server[0] droppedJobsSLA 2
scalar FogSequentialForward.fog[43].server[0] droppedJobsTotal 2
scalar FogSequentialForward.fog[44].dispatcher localJobs 361393
scalar FogSequentialForward.fog[44].dispatcher internalJobs 361390
scalar FogSequentialForward.fog[44].dispatcher externalJobs 9
scalar FogSequentialForward.fog[44].dispatcher remoteJobs 6
scalar FogSequentialForward.fog[44].dispatcher probeQueries 0
scalar FogSequentialForward.fog[44].dispatcher probeAnswers 0
scalar FogSequentialForward.fog[44].dispatcher droppedJobsSLA 0
scalar FogSequentialForward.fog[44].dispatcher jobs_class_1 361399
scalar FogSequentialForward.fog[44].dispatcher remoteJobs_class_1 6
scalar FogSequentialForward.fog[44].dispatcher localJobs_class_1 361393
scalar FogSequentialForward.fog[44].server[0] rho 0.55882036685944
scalar FogSequentialForward.fog[44].server[0] congestionRatio 0
scalar FogSequentialForward.fog[44].server[0] totalJobs 361393
scalar FogSequentialForward.fog[44].server[0] droppedJobsQueue 0
scalar FogSequentialForward.fog[44].server[0] droppedJobsTimout 0
scalar FogSequentialForward.fog[44].server[0] droppedJobsSLA 2
scalar FogSequentialForward.fog[44].server[0] droppedJobsTotal 2
scalar FogSequentialForward.fog[45].dispatcher localJobs 359527
scalar FogSequentialForward.fog[45].dispatcher internalJobs 359532
scalar FogSequentialForward.fog[45].dispatcher externalJobs 6
scalar FogSequentialForward.fog[45].dispatcher remoteJobs 11
scalar FogSequentialForward.fog[45].dispatcher probeQueries 0
scalar FogSequentialForward.fog[45].dispatcher probeAnswers 0
scalar FogSequentialForward.fog[45].dispatcher droppedJobsSLA 0
scalar FogSequentialForward.fog[45].dispatcher jobs_class_1 359538
scalar FogSequentialForward.fog[45].dispatcher remoteJobs_class_1 11
scalar FogSequentialForward.fog[45].dispatcher localJobs_class_1 359527
scalar FogSequentialForward.fog[45].server[0] rho 0.55596059560776
scalar FogSequentialForward.fog[45].server[0] congestionRatio 0
scalar FogSequentialForward.fog[45].server[0] totalJobs 359527
scalar FogSequentialForward.fog[45].server[0] droppedJobsQueue 0
scalar FogSequentialForward.fog[45].server[0] droppedJobsTimout 0
scalar FogSequentialForward.fog[45].server[0] droppedJobsSLA 3
scalar FogSequentialForward.fog[45].server[0] droppedJobsTotal 3
scalar FogSequentialForward.fog[46].dispatcher localJobs 360294
scalar FogSequentialForward.fog[46].dispatcher internalJobs 360293
scalar FogSequentialForward.fog[46].dispatcher externalJobs 10
scalar FogSequentialForward.fog[46].dispatcher remoteJobs 9
scalar FogSequentialForward.fog[46].dispatcher probeQueries 0
scalar FogSequentialForward.fog[46].dispatcher probeAnswers 0
scalar FogSequentialForward.fog[46].dispatcher droppedJobsSLA 0
scalar FogSequentialForward.fog[46].dispatcher jobs_class_1 360303
scalar FogSequentialForward.fog[46].dispatcher remoteJobs_class_1 9
scalar FogSequentialForward.fog[46].dispatcher localJobs_class_1 360294
scalar FogSequentialForward.fog[46].server[0] rho 0.55709832906723
scalar FogSequentialForward.fog[46].server[0] congestionRatio 0
scalar FogSequentialForward.fog[46].server[0] totalJobs 360294
scalar FogSequentialForward.fog[46].server[0] droppedJobsQueue 0
scalar FogSequentialForward.fog[46].server[0] droppedJobsTimout 0
scalar FogSequentialForward.fog[46].server[0] droppedJobsSLA 3
scalar FogSequentialForward.fog[46].server[0] droppedJobsTotal 3
scalar FogSequentialForward.fog[47].dispatcher localJobs 361614
scalar FogSequentialForward.fog[47].dispatcher internalJobs 361618
scalar FogSequentialForward.fog[47].dispatcher externalJobs 5
scalar FogSequentialForward.fog[47].dispatcher remoteJobs 9
scalar FogSequentialForward.fog[47].dispatcher probeQueries 0
scalar FogSequentialForward.fog[47].dispatcher probeAnswers 0
scalar FogSequentialForward.fog[47].dispatcher droppedJobsSLA 0
scalar FogSequentialForward.fog[47].dispatcher jobs_class_1 361623
scalar FogSequentialForward.fog[47].dispatcher remoteJobs_class_1 9
scalar FogSequentialForward.fog[47].dispatcher localJobs_class_1 361614
scalar FogSequentialForward.fog[47].server[0] rho 0.55915552377701
scalar FogSequentialForward.fog[47].server[0] congestionRatio 0
scalar FogSequentialForward.fog[47].server[0] totalJobs 361614
scalar FogSequentialForward.fog[47].server[0] droppedJobsQueue 0
scalar FogSequentialForward.fog[47].server[0] droppedJobsTimout 0
scalar FogSequentialForward.fog[47].server[0] droppedJobsSLA 2
scalar FogSequentialForward.fog[47].server[0] droppedJobsTotal 2
scalar FogSequentialForward.fog[48].dispatcher localJobs 359599
scalar FogSequentialForward.fog[48].dispatcher internalJobs 359596
scalar FogSequentialForward.fog[48].dispatcher externalJobs 8
scalar FogSequentialForward.fog[48].dispatcher remoteJobs 5
scalar FogSequentialForward.fog[48].dispatcher probeQueries 0
scalar FogSequentialForward.fog[48].dispatcher probeAnswers 0
scalar FogSequentialForward.fog[48].dispatcher droppedJobsSLA 0
scalar FogSequentialForward.fog[48].dispatcher jobs_class_1 359604
scalar FogSequentialForward.fog[48].dispatcher remoteJobs_class_1 5
scalar FogSequentialForward.fog[48].dispatcher localJobs_class_1 359599
scalar FogSequentialForward.fog[48].server[0] rho 0.55603587627411
scalar FogSequentialForward.fog[48].server[0] congestionRatio 0
scalar FogSequentialForward.fog[48].server[0] totalJobs 359599
scalar FogSequentialForward.fog[48].server[0] droppedJobsQueue 0
scalar FogSequentialForward.fog[48].server[0] droppedJobsTimout 0
scalar FogSequentialForward.fog[48].server[0] droppedJobsSLA 2
scalar FogSequentialForward.fog[48].server[0] droppedJobsTotal 2
scalar FogSequentialForward.fog[49].dispatcher localJobs 360207
scalar FogSequentialForward.fog[49].dispatcher internalJobs 360216
scalar FogSequentialForward.fog[49].dispatcher externalJobs 7
scalar FogSequentialForward.fog[49].dispatcher remoteJobs 16
scalar FogSequentialForward.fog[49].dispatcher probeQueries 0
scalar FogSequentialForward.fog[49].dispatcher probeAnswers 0
scalar FogSequentialForward.fog[49].dispatcher droppedJobsSLA 0
scalar FogSequentialForward.fog[49].dispatcher jobs_class_1 360223
scalar FogSequentialForward.fog[49].dispatcher remoteJobs_class_1 16
scalar FogSequentialForward.fog[49].dispatcher localJobs_class_1 360207
scalar FogSequentialForward.fog[49].server[0] rho 0.5569731593132
scalar FogSequentialForward.fog[49].server[0] congestionRatio 0
scalar FogSequentialForward.fog[49].server[0] totalJobs 360207
scalar FogSequentialForward.fog[49].server[0] droppedJobsQueue 0
scalar FogSequentialForward.fog[49].server[0] droppedJobsTimout 0
scalar FogSequentialForward.fog[49].server[0] droppedJobsSLA 3
scalar FogSequentialForward.fog[49].server[0] droppedJobsTotal 3
scalar FogSequentialForward.fog[50].dispatcher localJobs 360574
scalar FogSequentialForward.fog[50].dispatcher internalJobs 360576
scalar FogSequentialForward.fog[50].dispatcher externalJobs 6
scalar FogSequentialForward.fog[50].dispatcher remoteJobs 8
scalar FogSequentialForward.fog[50].dispatcher probeQueries 0
scalar FogSequentialForward.fog[50].dispatcher probeAnswers 0
scalar FogSequentialForward.fog[50].dispatcher droppedJobsSLA 0
scalar FogSequentialForward.fog[50].dispatcher jobs_class_1 360582
scalar FogSequentialForward.fog[50].dispatcher remoteJobs_class_1 8
scalar FogSequentialForward.fog[50].dispatcher localJobs_class_1 360574
scalar FogSequentialForward.fog[50].server[0] rho 0.55755662918091
scalar FogSequentialForward.fog[50].server[0] congestionRatio 0
scalar FogSequentialForward.fog[50].server[0] totalJobs 360574
scalar FogSequentialForward.fog[50].server[0] droppedJobsQueue 0
scalar FogSequentialForward.fog[50].server[0] droppedJobsTimout 0
scalar FogSequentialForward.fog[50].server[0] droppedJobsSLA 3
scalar FogSequentialForward.fog[50].server[0] droppedJobsTotal 3
scalar FogSequentialForward.fog[51].dispatcher localJobs 360427
scalar FogSequentialForward.fog[51].dispatcher internalJobs 360419
scalar FogSequentialForward.fog[51].dispatcher externalJobs 10
scalar FogSequentialForward.fog[51].dispatcher remoteJobs 2
scalar FogSequentialForward.fog[51].dispatcher probeQueries 0
scalar FogSequentialForward.fog[51].dispatcher probeAnswers 0
scalar FogSequentialForward.fog[51].dispatcher droppedJobsSLA 0
scalar FogSequentialForward.fog[51].dispatcher jobs_class_1 360429
scalar FogSequentialForward.fog[51].dispatcher remoteJobs_class_1 2
scalar FogSequentialForward.fog[51].dispatcher localJobs_class_1 360427
scalar FogSequentialForward.fog[51].server[0] rho 0.55732786655426
scalar FogSequentialForward.fog[51].server[0] congestionRatio 0
scalar FogSequentialForward.fog[51].server[0] totalJobs 360427
scalar FogSequentialForward.fog[51].server[0] droppedJobsQueue 0
scalar FogSequentialForward.fog[51].server[0] droppedJobsTimout 0
scalar FogSequentialForward.fog[51].server[0] droppedJobsSLA 3
scalar FogSequentialForward.fog[51].server[0] droppedJobsTotal 3
scalar FogSequentialForward.fog[52].dispatcher localJobs 361860
scalar FogSequentialForward.fog[52].dispatcher internalJobs 361858
scalar FogSequentialForward.fog[52].dispatcher externalJobs 8
scalar FogSequentialForward.fog[52].dispatcher remoteJobs 6
scalar FogSequentialForward.fog[52].dispatcher probeQueries 0
scalar FogSequentialForward.fog[52].dispatcher probeAnswers 0
scalar FogSequentialForward.fog[52].dispatcher droppedJobsSLA 0
scalar FogSequentialForward.fog[52].dispatcher jobs_class_1 361866
scalar FogSequentialForward.fog[52].dispatcher remoteJobs_class_1 6
scalar FogSequentialForward.fog[52].dispatcher localJobs_class_1 361860
scalar FogSequentialForward.fog[52].server[0] rho 0.55953079462051
scalar FogSequentialForward.fog[52].server[0] congestionRatio 0
scalar FogSequentialForward.fog[52].server[0] totalJobs 361860
scalar FogSequentialForward.fog[52].server[0] droppedJobsQueue 0
scalar FogSequentialForward.fog[52].server[0] droppedJobsTimout 0
scalar FogSequentialForward.fog[52].server[0] droppedJobsSLA 3
scalar FogSequentialForward.fog[52].server[0] droppedJobsTotal 3
scalar FogSequentialForward.fog[53].dispatcher localJobs 360327
scalar FogSequentialForward.fog[53].dispatcher internalJobs 360328
scalar FogSequentialForward.fog[53].dispatcher externalJobs 13
scalar FogSequentialForward.fog[53].dispatcher remoteJobs 14
scalar FogSequentialForward.fog[53].dispatcher probeQueries 0
scalar FogSequentialForward.fog[53].dispatcher probeAnswers 0
scalar FogSequentialForward.fog[53].dispatcher droppedJobsSLA 0
scalar FogSequentialForward.fog[53].dispatcher jobs_class_1 360341
scalar FogSequentialForward.fog[53].dispatcher remoteJobs_class_1 14
scalar FogSequentialForward.fog[53].dispatcher localJobs_class_1 360327
scalar FogSequentialForward.fog[53].server[0] rho 0.55717134475708
scalar FogSequentialForward.fog[53].server[0] congestionRatio 0
scalar FogSequentialForward.fog[53].server[0] totalJobs 360327
scalar FogSequentialForward.fog[53].server[0] droppedJobsQueue 0
scalar FogSequentialForward.fog[53].server[0] droppedJobsTimout 0
scalar FogSequentialForward.fog[53].server[0] droppedJobsSLA 2
scalar FogSequentialForward.fog[53].server[0] droppedJobsTotal 2
scalar FogSequentialForward.fog[54].dispatcher localJobs 361006
scalar FogSequentialForward.fog[54].dispatcher internalJobs 361000
scalar FogSequentialForward.fog[54].dispatcher externalJobs 12
scalar FogSequentialForward.fog[54].dispatcher remoteJobs 6
scalar FogSequentialForward.fog[54].dispatcher probeQueries 0
scalar FogSequentialForward.fog[54].dispatcher probeAnswers 0
scalar FogSequentialForward.fog[54].dispatcher droppedJobsSLA 0
scalar FogSequentialForward.fog[54].dispatcher jobs_class_1 361012
scalar FogSequentialForward.fog[54].dispatcher remoteJobs_class_1 6
scalar FogSequentialForward.fog[54].dispatcher localJobs_class_1 361006
scalar FogSequentialForward.fog[54].server[0] rho 0.5582041144371
scalar FogSequentialForward.fog[54].server[0] congestionRatio 0
scalar FogSequentialForward.fog[54].server[0] totalJobs 361006
scalar FogSequentialForward.fog[54].server[0] droppedJobsQueue 0
scalar FogSequentialForward.fog[54].server[0] droppedJobsTimout 0
scalar FogSequentialForward.fog[54].server[0] droppedJobsSLA 2
scalar FogSequentialForward.fog[54].server[0] droppedJobsTotal 2
scalar FogSequentialForward.fog[55].dispatcher localJobs 361309
scalar FogSequentialForward.fog[55].dispatcher internalJobs 361302
scalar FogSequentialForward.fog[55].dispatcher externalJobs 11
scalar FogSequentialForward.fog[55].dispatcher remoteJobs 4
scalar FogSequentialForward.fog[55].dispatcher probeQueries 0
scalar FogSequentialForward.fog[55].dispatcher probeAnswers 0
scalar FogSequentialForward.fog[55].dispatcher droppedJobsSLA 0
scalar FogSequentialForward.fog[55].dispatcher jobs_class_1 361313
scalar FogSequentialForward.fog[55].dispatcher remoteJobs_class_1 4
scalar FogSequentialForward.fog[55].dispatcher localJobs_class_1 361309
scalar FogSequentialForward.fog[55].server[0] rho 0.5586866736412
scalar FogSequentialForward.fog[55].server[0] congestionRatio 0
scalar FogSequentialForward.fog[55].server[0] totalJobs 361309
scalar FogSequentialForward.fog[55].server[0] droppedJobsQueue 0
scalar FogSequentialForward.fog[55].server[0] droppedJobsTimout 0
scalar FogSequentialForward.fog[55].server[0] droppedJobsSLA 1
scalar FogSequentialForward.fog[55].server[0] droppedJobsTotal 1
scalar FogSequentialForward.fog[56].dispatcher localJobs 361051
scalar FogSequentialForward.fog[56].dispatcher internalJobs 361059
scalar FogSequentialForward.fog[56].dispatcher externalJobs 6
scalar FogSequentialForward.fog[56].dispatcher remoteJobs 14
scalar FogSequentialForward.fog[56].dispatcher probeQueries 0
scalar FogSequentialForward.fog[56].dispatcher probeAnswers 0
scalar FogSequentialForward.fog[56].dispatcher droppedJobsSLA 0
scalar FogSequentialForward.fog[56].dispatcher jobs_class_1 361065
scalar FogSequentialForward.fog[56].dispatcher remoteJobs_class_1 14
scalar FogSequentialForward.fog[56].dispatcher localJobs_class_1 361051
scalar FogSequentialForward.fog[56].server[0] rho 0.55828750133514
scalar FogSequentialForward.fog[56].server[0] congestionRatio 0
scalar FogSequentialForward.fog[56].server[0] totalJobs 361051
scalar FogSequentialForward.fog[56].server[0] droppedJobsQueue 0
scalar FogSequentialForward.fog[56].server[0] droppedJobsTimout 0
scalar FogSequentialForward.fog[56].server[0] droppedJobsSLA 2
scalar FogSequentialForward.fog[56].server[0] droppedJobsTotal 2
scalar FogSequentialForward.fog[57].dispatcher localJobs 361742
scalar FogSequentialForward.fog[57].dispatcher internalJobs 361746
scalar FogSequentialForward.fog[57].dispatcher externalJobs 9
scalar FogSequentialForward.fog[57].dispatcher remoteJobs 13
scalar FogSequentialForward.fog[57].dispatcher probeQueries 0
scalar FogSequentialForward.fog[57].dispatcher probeAnswers 0
scalar FogSequentialForward.fog[57].dispatcher droppedJobsSLA 0
scalar FogSequentialForward.fog[57].dispatcher jobs_class_1 361755
scalar FogSequentialForward.fog[57].dispatcher remoteJobs_class_1 13
scalar FogSequentialForward.fog[57].dispatcher localJobs_class_1 361742
scalar FogSequentialForward.fog[57].server[0] rho 0.55936026573181
scalar FogSequentialForward.fog[57].server[0] congestionRatio 0
scalar FogSequentialForward.fog[57].server[0] totalJobs 361742
scalar FogSequentialForward.fog[57].server[0] droppedJobsQueue 0
scalar FogSequentialForward.fog[57].server[0] droppedJobsTimout 0
scalar FogSequentialForward.fog[57].server[0] droppedJobsSLA 0
scalar FogSequentialForward.fog[57].server[0] droppedJobsTotal 0
scalar FogSequentialForward.fog[58].dispatcher localJobs 360996
scalar FogSequentialForward.fog[58].dispatcher internalJobs 361000
scalar FogSequentialForward.fog[58].dispatcher externalJobs 15
scalar FogSequentialForward.fog[58].dispatcher remoteJobs 19
scalar FogSequentialForward.fog[58].dispatcher probeQueries 0
scalar FogSequentialForward.fog[58].dispatcher probeAnswers 0
scalar FogSequentialForward.fog[58].dispatcher droppedJobsSLA 0
scalar FogSequentialForward.fog[58].dispatcher jobs_class_1 361015
scalar FogSequentialForward.fog[58].dispatcher remoteJobs_class_1 19
scalar FogSequentialForward.fog[58].dispatcher localJobs_class_1 360996
scalar FogSequentialForward.fog[58].server[0] rho 0.55819189548492
scalar FogSequentialForward.fog[58].server[0] congestionRatio 0
scalar FogSequentialForward.fog[58].server[0] totalJobs 360996
scalar FogSequentialForward.fog[58].server[0] droppedJobsQueue 0
scalar FogSequentialForward.fog[58].server[0] droppedJobsTimout 0
scalar FogSequentialForward.fog[58].server[0] droppedJobsSLA 4
scalar FogSequentialForward.fog[58].server[0] droppedJobsTotal 4
scalar FogSequentialForward.fog[59].dispatcher localJobs 359609
scalar FogSequentialForward.fog[59].dispatcher internalJobs 359603
scalar FogSequentialForward.fog[59].dispatcher externalJobs 11
scalar FogSequentialForward.fog[59].dispatcher remoteJobs 5
scalar FogSequentialForward.fog[59].dispatcher probeQueries 0
scalar FogSequentialForward.fog[59].dispatcher probeAnswers 0
scalar FogSequentialForward.fog[59].dispatcher droppedJobsSLA 0
scalar FogSequentialForward.fog[59].dispatcher jobs_class_1 359614
scalar FogSequentialForward.fog[59].dispatcher remoteJobs_class_1 5
scalar FogSequentialForward.fog[59].dispatcher localJobs_class_1 359609
scalar FogSequentialForward.fog[59].server[0] rho 0.55606853961945
scalar FogSequentialForward.fog[59].server[0] congestionRatio 0
scalar FogSequentialForward.fog[59].server[0] totalJobs 359609
scalar FogSequentialForward.fog[59].server[0] droppedJobsQueue 0
scalar FogSequentialForward.fog[59].server[0] droppedJobsTimout 0
scalar FogSequentialForward.fog[59].server[0] droppedJobsSLA 2
scalar FogSequentialForward.fog[59].server[0] droppedJobsTotal 2
scalar FogSequentialForward.fog[60].dispatcher localJobs 361394
scalar FogSequentialForward.fog[60].dispatcher internalJobs 361400
scalar FogSequentialForward.fog[60].dispatcher externalJobs 11
scalar FogSequentialForward.fog[60].dispatcher remoteJobs 17
scalar FogSequentialForward.fog[60].dispatcher probeQueries 0
scalar FogSequentialForward.fog[60].dispatcher probeAnswers 0
scalar FogSequentialForward.fog[60].dispatcher droppedJobsSLA 0
scalar FogSequentialForward.fog[60].dispatcher jobs_class_1 361411
scalar FogSequentialForward.fog[60].dispatcher remoteJobs_class_1 17
scalar FogSequentialForward.fog[60].dispatcher localJobs_class_1 361394
scalar FogSequentialForward.fog[60].server[0] rho 0.55883222818375
scalar FogSequentialForward.fog[60].server[0] congestionRatio 0
scalar FogSequentialForward.fog[60].server[0] totalJobs 361394
scalar FogSequentialForward.fog[60].server[0] droppedJobsQueue 0
scalar FogSequentialForward.fog[60].server[0] droppedJobsTimout 0
scalar FogSequentialForward.fog[60].server[0] droppedJobsSLA 3
scalar FogSequentialForward.fog[60].server[0] droppedJobsTotal 3
scalar FogSequentialForward.fog[61].dispatcher localJobs 362038
scalar FogSequentialForward.fog[61].dispatcher internalJobs 362037
scalar FogSequentialForward.fog[61].dispatcher externalJobs 11
scalar FogSequentialForward.fog[61].dispatcher remoteJobs 10
scalar FogSequentialForward.fog[61].dispatcher probeQueries 0
scalar FogSequentialForward.fog[61].dispatcher probeAnswers 0
scalar FogSequentialForward.fog[61].dispatcher droppedJobsSLA 0
scalar FogSequentialForward.fog[61].dispatcher jobs_class_1 362048
scalar FogSequentialForward.fog[61].dispatcher remoteJobs_class_1 10
scalar FogSequentialForward.fog[61].dispatcher localJobs_class_1 362038
scalar FogSequentialForward.fog[61].server[0] rho 0.55981206893921
scalar FogSequentialForward.fog[61].server[0] congestionRatio 0
scalar FogSequentialForward.fog[61].server[0] totalJobs 362038
scalar FogSequentialForward.fog[61].server[0] droppedJobsQueue 0
scalar FogSequentialForward.fog[61].server[0] droppedJobsTimout 0
scalar FogSequentialForward.fog[61].server[0] droppedJobsSLA 4
scalar FogSequentialForward.fog[61].server[0] droppedJobsTotal 4
scalar FogSequentialForward.fog[62].dispatcher localJobs 361164
scalar FogSequentialForward.fog[62].dispatcher internalJobs 361173
scalar FogSequentialForward.fog[62].dispatcher externalJobs 10
scalar FogSequentialForward.fog[62].dispatcher remoteJobs 19
scalar FogSequentialForward.fog[62].dispatcher probeQueries 0
scalar FogSequentialForward.fog[62].dispatcher probeAnswers 0
scalar FogSequentialForward.fog[62].dispatcher droppedJobsSLA 0
scalar FogSequentialForward.fog[62].dispatcher jobs_class_1 361183
scalar FogSequentialForward.fog[62].dispatcher remoteJobs_class_1 19
scalar FogSequentialForward.fog[62].dispatcher localJobs_class_1 361164
scalar FogSequentialForward.fog[62].server[0] rho 0.55846041440964
scalar FogSequentialForward.fog[62].server[0] congestionRatio 0
scalar FogSequentialForward.fog[62].server[0] totalJobs 361164
scalar FogSequentialForward.fog[62].server[0] droppedJobsQueue 0
scalar FogSequentialForward.fog[62].server[0] droppedJobsTimout 0
scalar FogSequentialForward.fog[62].server[0] droppedJobsSLA 2
scalar FogSequentialForward.fog[62].server[0] droppedJobsTotal 2
scalar FogSequentialForward.fog[63].dispatcher localJobs 360376
scalar FogSequentialForward.fog[63].dispatcher internalJobs 360376
scalar FogSequentialForward.fog[63].dispatcher externalJobs 8
scalar FogSequentialForward.fog[63].dispatcher remoteJobs 8
scalar FogSequentialForward.fog[63].dispatcher probeQueries 0
scalar FogSequentialForward.fog[63].dispatcher probeAnswers 0
scalar FogSequentialForward.fog[63].dispatcher droppedJobsSLA 0
scalar FogSequentialForward.fog[63].dispatcher jobs_class_1 360384
scalar FogSequentialForward.fog[63].dispatcher remoteJobs_class_1 8
scalar FogSequentialForward.fog[63].dispatcher localJobs_class_1 360376
scalar FogSequentialForward.fog[63].server[0] rho 0.55724591016769
scalar FogSequentialForward.fog[63].server[0] congestionRatio 0
scalar FogSequentialForward.fog[63].server[0] totalJobs 360376
scalar FogSequentialForward.fog[63].server[0] droppedJobsQueue 0
scalar FogSequentialForward.fog[63].server[0] droppedJobsTimout 0
scalar FogSequentialForward.fog[63].server[0] droppedJobsSLA 5
scalar FogSequentialForward.fog[63].server[0] droppedJobsTotal 5
scalar FogSequentialForward.fog[64].dispatcher localJobs 360283
scalar FogSequentialForward.fog[64].dispatcher internalJobs 360277
scalar FogSequentialForward.fog[64].dispatcher externalJobs 14
scalar FogSequentialForward.fog[64].dispatcher remoteJobs 8
scalar FogSequentialForward.fog[64].dispatcher probeQueries 0
scalar FogSequentialForward.fog[64].dispatcher probeAnswers 0
scalar FogSequentialForward.fog[64].dispatcher droppedJobsSLA 0
scalar FogSequentialForward.fog[64].dispatcher jobs_class_1 360291
scalar FogSequentialForward.fog[64].dispatcher remoteJobs_class_1 8
scalar FogSequentialForward.fog[64].dispatcher localJobs_class_1 360283
scalar FogSequentialForward.fog[64].server[0] rho 0.55709171295166
scalar FogSequentialForward.fog[64].server[0] congestionRatio 0
scalar FogSequentialForward.fog[64].server[0] totalJobs 360283
scalar FogSequentialForward.fog[64].server[0] droppedJobsQueue 0
scalar FogSequentialForward.fog[64].server[0] droppedJobsTimout 0
scalar FogSequentialForward.fog[64].server[0] droppedJobsSLA 2
scalar FogSequentialForward.fog[64].server[0] droppedJobsTotal 2
scalar FogSequentialForward.fog[65].dispatcher localJobs 359914
scalar FogSequentialForward.fog[65].dispatcher internalJobs 359917
scalar FogSequentialForward.fog[65].dispatcher externalJobs 10
scalar FogSequentialForward.fog[65].dispatcher remoteJobs 13
scalar FogSequentialForward.fog[65].dispatcher probeQueries 0
scalar FogSequentialForward.fog[65].dispatcher probeAnswers 0
scalar FogSequentialForward.fog[65].dispatcher droppedJobsSLA 0
scalar FogSequentialForward.fog[65].dispatcher jobs_class_1 359927
scalar FogSequentialForward.fog[65].dispatcher remoteJobs_class_1 13
scalar FogSequentialForward.fog[65].dispatcher localJobs_class_1 359914
scalar FogSequentialForward.fog[65].server[0] rho 0.55653828382492
scalar FogSequentialForward.fog[65].server[0] congestionRatio 0
scalar FogSequentialForward.fog[65].server[0] totalJobs 359914
scalar FogSequentialForward.fog[65].server[0] droppedJobsQueue 0
scalar FogSequentialForward.fog[65].server[0] droppedJobsTimout 0
scalar FogSequentialForward.fog[65].server[0] droppedJobsSLA 3
scalar FogSequentialForward.fog[65].server[0] droppedJobsTotal 3
scalar FogSequentialForward.fog[66].dispatcher localJobs 361395
scalar FogSequentialForward.fog[66].dispatcher internalJobs 361399
scalar FogSequentialForward.fog[66].dispatcher externalJobs 12
scalar FogSequentialForward.fog[66].dispatcher remoteJobs 16
scalar FogSequentialForward.fog[66].dispatcher probeQueries 0
scalar FogSequentialForward.fog[66].dispatcher probeAnswers 0
scalar FogSequentialForward.fog[66].dispatcher droppedJobsSLA 0
scalar FogSequentialForward.fog[66].dispatcher jobs_class_1 361411
scalar FogSequentialForward.fog[66].dispatcher remoteJobs_class_1 16
scalar FogSequentialForward.fog[66].dispatcher localJobs_class_1 361395
scalar FogSequentialForward.fog[66].server[0] rho 0.55880260467529
scalar FogSequentialForward.fog[66].server[0] congestionRatio 0
scalar FogSequentialForward.fog[66].server[0] totalJobs 361395
scalar FogSequentialForward.fog[66].server[0] droppedJobsQueue 0
scalar FogSequentialForward.fog[66].server[0] droppedJobsTimout 0
scalar FogSequentialForward.fog[66].server[0] droppedJobsSLA 7
scalar FogSequentialForward.fog[66].server[0] droppedJobsTotal 7
scalar FogSequentialForward.fog[67].dispatcher localJobs 360741
scalar FogSequentialForward.fog[67].dispatcher internalJobs 360744
scalar FogSequentialForward.fog[67].dispatcher externalJobs 14
scalar FogSequentialForward.fog[67].dispatcher remoteJobs 17
scalar FogSequentialForward.fog[67].dispatcher probeQueries 0
scalar FogSequentialForward.fog[67].dispatcher probeAnswers 0
scalar FogSequentialForward.fog[67].dispatcher droppedJobsSLA 0
scalar FogSequentialForward.fog[67].dispatcher jobs_class_1 360758
scalar FogSequentialForward.fog[67].dispatcher remoteJobs_class_1 17
scalar FogSequentialForward.fog[67].dispatcher localJobs_class_1 360741
scalar FogSequentialForward.fog[67].server[0] rho 0.55779045820236
scalar FogSequentialForward.fog[67].server[0] congestionRatio 0
scalar FogSequentialForward.fog[67].server[0] totalJobs 360741
scalar FogSequentialForward.fog[67].server[0] droppedJobsQueue 0
scalar FogSequentialForward.fog[67].server[0] droppedJobsTimout 0
scalar FogSequentialForward.fog[67].server[0] droppedJobsSLA 1
scalar FogSequentialForward.fog[67].server[0] droppedJobsTotal 1
scalar FogSequentialForward.fog[68].dispatcher localJobs 361682
scalar FogSequentialForward.fog[68].dispatcher internalJobs 361674
scalar FogSequentialForward.fog[68].dispatcher externalJobs 12
scalar FogSequentialForward.fog[68].dispatcher remoteJobs 4
scalar FogSequentialForward.fog[68].dispatcher probeQueries 0
scalar FogSequentialForward.fog[68].dispatcher probeAnswers 0
scalar FogSequentialForward.fog[68].dispatcher droppedJobsSLA 0
scalar FogSequentialForward.fog[68].dispatcher jobs_class_1 361686
scalar FogSequentialForward.fog[68].dispatcher remoteJobs_class_1 4
scalar FogSequentialForward.fog[68].dispatcher localJobs_class_1 361682
scalar FogSequentialForward.fog[68].server[0] rho 0.55926841497421
scalar FogSequentialForward.fog[68].server[0] congestionRatio 0
scalar FogSequentialForward.fog[68].server[0] totalJobs 361682
scalar FogSequentialForward.fog[68].server[0] droppedJobsQueue 0
scalar FogSequentialForward.fog[68].server[0] droppedJobsTimout 0
scalar FogSequentialForward.fog[68].server[0] droppedJobsSLA 1
scalar FogSequentialForward.fog[68].server[0] droppedJobsTotal 1
scalar FogSequentialForward.fog[69].dispatcher localJobs 360400
scalar FogSequentialForward.fog[69].dispatcher internalJobs 360404
scalar FogSequentialForward.fog[69].dispatcher externalJobs 9
scalar FogSequentialForward.fog[69].dispatcher remoteJobs 13
scalar FogSequentialForward.fog[69].dispatcher probeQueries 0
scalar FogSequentialForward.fog[69].dispatcher probeAnswers 0
scalar FogSequentialForward.fog[69].dispatcher droppedJobsSLA 0
scalar FogSequentialForward.fog[69].dispatcher jobs_class_1 360413
scalar FogSequentialForward.fog[69].dispatcher remoteJobs_class_1 13
scalar FogSequentialForward.fog[69].dispatcher localJobs_class_1 360400
scalar FogSequentialForward.fog[69].server[0] rho 0.55730760097504
scalar FogSequentialForward.fog[69].server[0] congestionRatio 0
scalar FogSequentialForward.fog[69].server[0] totalJobs 360400
scalar FogSequentialForward.fog[69].server[0] droppedJobsQueue 0
scalar FogSequentialForward.fog[69].server[0] droppedJobsTimout 0
scalar FogSequentialForward.fog[69].server[0] droppedJobsSLA 2
scalar FogSequentialForward.fog[69].server[0] droppedJobsTotal 2
scalar FogSequentialForward.fog[70].dispatcher localJobs 360197
scalar FogSequentialForward.fog[70].dispatcher internalJobs 360197
scalar FogSequentialForward.fog[70].dispatcher externalJobs 12
scalar FogSequentialForward.fog[70].dispatcher remoteJobs 12
scalar FogSequentialForward.fog[70].dispatcher probeQueries 0
scalar FogSequentialForward.fog[70].dispatcher probeAnswers 0
scalar FogSequentialForward.fog[70].dispatcher droppedJobsSLA 0
scalar FogSequentialForward.fog[70].dispatcher jobs_class_1 360209
scalar FogSequentialForward.fog[70].dispatcher remoteJobs_class_1 12
scalar FogSequentialForward.fog[70].dispatcher localJobs_class_1 360197
scalar FogSequentialForward.fog[70].server[0] rho 0.55697649717331
scalar FogSequentialForward.fog[70].server[0] congestionRatio 0
scalar FogSequentialForward.fog[70].server[0] totalJobs 360197
scalar FogSequentialForward.fog[70].server[0] droppedJobsQueue 0
scalar FogSequentialForward.fog[70].server[0] droppedJobsTimout 0
scalar FogSequentialForward.fog[70].server[0] droppedJobsSLA 4
scalar FogSequentialForward.fog[70].server[0] droppedJobsTotal 4
scalar FogSequentialForward.fog[71].dispatcher localJobs 360812
scalar FogSequentialForward.fog[71].dispatcher internalJobs 360818
scalar FogSequentialForward.fog[71].dispatcher externalJobs 8
scalar FogSequentialForward.fog[71].dispatcher remoteJobs 14
scalar FogSequentialForward.fog[71].dispatcher probeQueries 0
scalar FogSequentialForward.fog[71].dispatcher probeAnswers 0
scalar FogSequentialForward.fog[71].dispatcher droppedJobsSLA 0
scalar FogSequentialForward.fog[71].dispatcher jobs_class_1 360826
scalar FogSequentialForward.fog[71].dispatcher remoteJobs_class_1 14
[...]
scalar FogSequentialForward.fog[82].server[0] droppedJobsSLA 1
scalar FogSequentialForward.fog[82].server[0] droppedJobsTotal 1
scalar FogSequentialForward.fog[83].dispatcher localJobs 361243
scalar FogSequentialForward.fog[83].dispatcher internalJobs 361256
scalar FogSequentialForward.fog[83].dispatcher externalJobs 7
scalar FogSequentialForward.fog[83].dispatcher remoteJobs 20
scalar FogSequentialForward.fog[83].dispatcher probeQueries 0
scalar FogSequentialForward.fog[83].dispatcher probeAnswers 0
scalar FogSequentialForward.fog[83].dispatcher droppedJobsSLA 0
scalar FogSequentialForward.fog[83].dispatcher jobs_class_1 361263
scalar FogSequentialForward.fog[83].dispatcher remoteJobs_class_1 20
scalar FogSequentialForward.fog[83].dispatcher localJobs_class_1 361243
scalar FogSequentialForward.fog[83].server[0] rho 0.55857217311859
scalar FogSequentialForward.fog[83].server[0] congestionRatio 0
scalar FogSequentialForward.fog[83].server[0] totalJobs 361243
scalar FogSequentialForward.fog[83].server[0] droppedJobsQueue 0
scalar FogSequentialForward.fog[83].server[0] droppedJobsTimout 0
scalar FogSequentialForward.fog[83].server[0] droppedJobsSLA 3
scalar FogSequentialForward.fog[83].server[0] droppedJobsTotal 3
scalar FogSequentialForward.fog[84].dispatcher localJobs 360578
scalar FogSequentialForward.fog[84].dispatcher internalJobs 360584
scalar FogSequentialForward.fog[84].dispatcher externalJobs 10
scalar FogSequentialForward.fog[84].dispatcher remoteJobs 16
scalar FogSequentialForward.fog[84].dispatcher probeQueries 0
scalar FogSequentialForward.fog[84].dispatcher probeAnswers 0
scalar FogSequentialForward.fog[84].dispatcher droppedJobsSLA 0
scalar FogSequentialForward.fog[84].dispatcher jobs_class_1 360594
scalar FogSequentialForward.fog[84].dispatcher remoteJobs_class_1 16
scalar FogSequentialForward.fog[84].dispatcher localJobs_class_1 360578
scalar FogSequentialForward.fog[84].server[0] rho 0.55753821134567
scalar FogSequentialForward.fog[84].server[0] congestionRatio 0
scalar FogSequentialForward.fog[84].server[0] totalJobs 360578
scalar FogSequentialForward.fog[84].server[0] droppedJobsQueue 0
scalar FogSequentialForward.fog[84].server[0] droppedJobsTimout 0
scalar FogSequentialForward.fog[84].server[0] droppedJobsSLA 2
scalar FogSequentialForward.fog[84].server[0] droppedJobsTotal 2
scalar FogSequentialForward.fog[85].dispatcher localJobs 359479
scalar FogSequentialForward.fog[85].dispatcher internalJobs 359481
scalar FogSequentialForward.fog[85].dispatcher externalJobs 10
scalar FogSequentialForward.fog[85].dispatcher remoteJobs 12
scalar FogSequentialForward.fog[85].dispatcher probeQueries 0
scalar FogSequentialForward.fog[85].dispatcher probeAnswers 0
scalar FogSequentialForward.fog[85].dispatcher droppedJobsSLA 0
scalar FogSequentialForward.fog[85].dispatcher jobs_class_1 359491
scalar FogSequentialForward.fog[85].dispatcher remoteJobs_class_1 12
scalar FogSequentialForward.fog[85].dispatcher localJobs_class_1 359479
scalar FogSequentialForward.fog[85].server[0] rho 0.55586063861847
scalar FogSequentialForward.fog[85].server[0] congestionRatio 0
scalar FogSequentialForward.fog[85].server[0] totalJobs 359479
scalar FogSequentialForward.fog[85].server[0] droppedJobsQueue 0
scalar FogSequentialForward.fog[85].server[0] droppedJobsTimout 0
scalar FogSequentialForward.fog[85].server[0] droppedJobsSLA 3
scalar FogSequentialForward.fog[85].server[0] droppedJobsTotal 3
scalar FogSequentialForward.fog[86].dispatcher localJobs 360076
scalar FogSequentialForward.fog[86].dispatcher internalJobs 360073
scalar FogSequentialForward.fog[86].dispatcher externalJobs 11
scalar FogSequentialForward.fog[86].dispatcher remoteJobs 8
scalar FogSequentialForward.fog[86].dispatcher probeQueries 0
scalar FogSequentialForward.fog[86].dispatcher probeAnswers 0
scalar FogSequentialForward.fog[86].dispatcher droppedJobsSLA 0
scalar FogSequentialForward.fog[86].dispatcher jobs_class_1 360084
scalar FogSequentialForward.fog[86].dispatcher remoteJobs_class_1 8
scalar FogSequentialForward.fog[86].dispatcher localJobs_class_1 360076
scalar FogSequentialForward.fog[86].server[0] rho 0.55679142475128
scalar FogSequentialForward.fog[86].server[0] congestionRatio 0
scalar FogSequentialForward.fog[86].server[0] totalJobs 360076
scalar FogSequentialForward.fog[86].server[0] droppedJobsQueue 0
scalar FogSequentialForward.fog[86].server[0] droppedJobsTimout 0
scalar FogSequentialForward.fog[86].server[0] droppedJobsSLA 3
scalar FogSequentialForward.fog[86].server[0] droppedJobsTotal 3
scalar FogSequentialForward.fog[87].dispatcher localJobs 360955
scalar FogSequentialForward.fog[87].dispatcher internalJobs 360957
scalar FogSequentialForward.fog[87].dispatcher externalJobs 9
scalar FogSequentialForward.fog[87].dispatcher remoteJobs 11
scalar FogSequentialForward.fog[87].dispatcher probeQueries 0
scalar FogSequentialForward.fog[87].dispatcher probeAnswers 0
scalar FogSequentialForward.fog[87].dispatcher droppedJobsSLA 0
scalar FogSequentialForward.fog[87].dispatcher jobs_class_1 360966
scalar FogSequentialForward.fog[87].dispatcher remoteJobs_class_1 11
scalar FogSequentialForward.fog[87].dispatcher localJobs_class_1 360955
scalar FogSequentialForward.fog[87].server[0] rho 0.55816149711609
scalar FogSequentialForward.fog[87].server[0] congestionRatio 0
scalar FogSequentialForward.fog[87].server[0] totalJobs 360955
scalar FogSequentialForward.fog[87].server[0] droppedJobsQueue 0
scalar FogSequentialForward.fog[87].server[0] droppedJobsTimout 0
scalar FogSequentialForward.fog[87].server[0] droppedJobsSLA 1
scalar FogSequentialForward.fog[87].server[0] droppedJobsTotal 1
scalar FogSequentialForward.fog[88].dispatcher localJobs 361416
scalar FogSequentialForward.fog[88].dispatcher internalJobs 361420
scalar FogSequentialForward.fog[88].dispatcher externalJobs 8
scalar FogSequentialForward.fog[88].dispatcher remoteJobs 12
scalar FogSequentialForward.fog[88].dispatcher probeQueries 0
scalar FogSequentialForward.fog[88].dispatcher probeAnswers 0
scalar FogSequentialForward.fog[88].dispatcher droppedJobsSLA 0
scalar FogSequentialForward.fog[88].dispatcher jobs_class_1 361428
scalar FogSequentialForward.fog[88].dispatcher remoteJobs_class_1 12
scalar FogSequentialForward.fog[88].dispatcher localJobs_class_1 361416
scalar FogSequentialForward.fog[88].server[0] rho 0.55884075164795
scalar FogSequentialForward.fog[88].server[0] congestionRatio 0
scalar FogSequentialForward.fog[88].server[0] totalJobs 361416
scalar FogSequentialForward.fog[88].server[0] droppedJobsQueue 0
scalar FogSequentialForward.fog[88].server[0] droppedJobsTimout 0
scalar FogSequentialForward.fog[88].server[0] droppedJobsSLA 7
scalar FogSequentialForward.fog[88].server[0] droppedJobsTotal 7
scalar FogSequentialForward.fog[89].dispatcher localJobs 360256
scalar FogSequentialForward.fog[89].dispatcher internalJobs 360249
scalar FogSequentialForward.fog[89].dispatcher externalJobs 13
scalar FogSequentialForward.fog[89].dispatcher remoteJobs 6
scalar FogSequentialForward.fog[89].dispatcher probeQueries 0
scalar FogSequentialForward.fog[89].dispatcher probeAnswers 0
scalar FogSequentialForward.fog[89].dispatcher droppedJobsSLA 0
scalar FogSequentialForward.fog[89].dispatcher jobs_class_1 360262
scalar FogSequentialForward.fog[89].dispatcher remoteJobs_class_1 6
scalar FogSequentialForward.fog[89].dispatcher localJobs_class_1 360256
scalar FogSequentialForward.fog[89].server[0] rho 0.55705779790878
scalar FogSequentialForward.fog[89].server[0] congestionRatio 0
scalar FogSequentialForward.fog[89].server[0] totalJobs 360256
scalar FogSequentialForward.fog[89].server[0] droppedJobsQueue 0
scalar FogSequentialForward.fog[89].server[0] droppedJobsTimout 0
scalar FogSequentialForward.fog[89].server[0] droppedJobsSLA 0
scalar FogSequentialForward.fog[89].server[0] droppedJobsTotal 0
scalar FogSequentialForward.fog[90].dispatcher localJobs 359193
scalar FogSequentialForward.fog[90].dispatcher internalJobs 359197
scalar FogSequentialForward.fog[90].dispatcher externalJobs 7
scalar FogSequentialForward.fog[90].dispatcher remoteJobs 11
scalar FogSequentialForward.fog[90].dispatcher probeQueries 0
scalar FogSequentialForward.fog[90].dispatcher probeAnswers 0
scalar FogSequentialForward.fog[90].dispatcher droppedJobsSLA 0
scalar FogSequentialForward.fog[90].dispatcher jobs_class_1 359204
scalar FogSequentialForward.fog[90].dispatcher remoteJobs_class_1 11
scalar FogSequentialForward.fog[90].dispatcher localJobs_class_1 359193
scalar FogSequentialForward.fog[90].server[0] rho 0.55544292926788
scalar FogSequentialForward.fog[90].server[0] congestionRatio 0
scalar FogSequentialForward.fog[90].server[0] totalJobs 359193
scalar FogSequentialForward.fog[90].server[0] droppedJobsQueue 0
scalar FogSequentialForward.fog[90].server[0] droppedJobsTimout 0
scalar FogSequentialForward.fog[90].server[0] droppedJobsSLA 0
scalar FogSequentialForward.fog[90].server[0] droppedJobsTotal 0
scalar FogSequentialForward.fog[91].dispatcher localJobs 360429
scalar FogSequentialForward.fog[91].dispatcher internalJobs 360426
scalar FogSequentialForward.fog[91].dispatcher externalJobs 14
scalar FogSequentialForward.fog[91].dispatcher remoteJobs 11
scalar FogSequentialForward.fog[91].dispatcher probeQueries 0
scalar FogSequentialForward.fog[91].dispatcher probeAnswers 0
scalar FogSequentialForward.fog[91].dispatcher droppedJobsSLA 0
scalar FogSequentialForward.fog[91].dispatcher jobs_class_1 360440
scalar FogSequentialForward.fog[91].dispatcher remoteJobs_class_1 11
scalar FogSequentialForward.fog[91].dispatcher localJobs_class_1 360429
scalar FogSequentialForward.fog[91].server[0] rho 0.55731546878815
scalar FogSequentialForward.fog[91].server[0] congestionRatio 0
scalar FogSequentialForward.fog[91].server[0] totalJobs 360429
scalar FogSequentialForward.fog[91].server[0] droppedJobsQueue 0
scalar FogSequentialForward.fog[91].server[0] droppedJobsTimout 0
scalar FogSequentialForward.fog[91].server[0] droppedJobsSLA 4
scalar FogSequentialForward.fog[91].server[0] droppedJobsTotal 4
scalar FogSequentialForward.fog[92].dispatcher localJobs 359025
scalar FogSequentialForward.fog[92].dispatcher internalJobs 359026
scalar FogSequentialForward.fog[92].dispatcher externalJobs 13
scalar FogSequentialForward.fog[92].dispatcher remoteJobs 14
scalar FogSequentialForward.fog[92].dispatcher probeQueries 0
scalar FogSequentialForward.fog[92].dispatcher probeAnswers 0
scalar FogSequentialForward.fog[92].dispatcher droppedJobsSLA 0
scalar FogSequentialForward.fog[92].dispatcher jobs_class_1 359039
scalar FogSequentialForward.fog[92].dispatcher remoteJobs_class_1 14
scalar FogSequentialForward.fog[92].dispatcher localJobs_class_1 359025
scalar FogSequentialForward.fog[92].server[0] rho 0.55516839027405
scalar FogSequentialForward.fog[92].server[0] congestionRatio 0
scalar FogSequentialForward.fog[92].server[0] totalJobs 359025
scalar FogSequentialForward.fog[92].server[0] droppedJobsQueue 0
scalar FogSequentialForward.fog[92].server[0] droppedJobsTimout 0
scalar FogSequentialForward.fog[92].server[0] droppedJobsSLA 3
scalar FogSequentialForward.fog[92].server[0] droppedJobsTotal 3
scalar FogSequentialForward.fog[93].dispatcher localJobs 360678
scalar FogSequentialForward.fog[93].dispatcher internalJobs 360680
scalar FogSequentialForward.fog[93].dispatcher externalJobs 12
scalar FogSequentialForward.fog[93].dispatcher remoteJobs 14
scalar FogSequentialForward.fog[93].dispatcher probeQueries 0
scalar FogSequentialForward.fog[93].dispatcher probeAnswers 0
scalar FogSequentialForward.fog[93].dispatcher droppedJobsSLA 0
scalar FogSequentialForward.fog[93].dispatcher jobs_class_1 360692
scalar FogSequentialForward.fog[93].dispatcher remoteJobs_class_1 14
scalar FogSequentialForward.fog[93].dispatcher localJobs_class_1 360678
scalar FogSequentialForward.fog[93].server[0] rho 0.55770272016525
scalar FogSequentialForward.fog[93].server[0] congestionRatio 0
scalar FogSequentialForward.fog[93].server[0] totalJobs 360678
scalar FogSequentialForward.fog[93].server[0] droppedJobsQueue 0
scalar FogSequentialForward.fog[93].server[0] droppedJobsTimout 0
scalar FogSequentialForward.fog[93].server[0] droppedJobsSLA 2
scalar FogSequentialForward.fog[93].server[0] droppedJobsTotal 2
scalar FogSequentialForward.fog[94].dispatcher localJobs 360470
scalar FogSequentialForward.fog[94].dispatcher internalJobs 360471
scalar FogSequentialForward.fog[94].dispatcher externalJobs 11
scalar FogSequentialForward.fog[94].dispatcher remoteJobs 12
scalar FogSequentialForward.fog[94].dispatcher probeQueries 0
scalar FogSequentialForward.fog[94].dispatcher probeAnswers 0
scalar FogSequentialForward.fog[94].dispatcher droppedJobsSLA 0
scalar FogSequentialForward.fog[94].dispatcher jobs_class_1 360482
scalar FogSequentialForward.fog[94].dispatcher remoteJobs_class_1 12
scalar FogSequentialForward.fog[94].dispatcher localJobs_class_1 360470
scalar FogSequentialForward.fog[94].server[0] rho 0.55741840600967
scalar FogSequentialForward.fog[94].server[0] congestionRatio 0
scalar FogSequentialForward.fog[94].server[0] totalJobs 360470
scalar FogSequentialForward.fog[94].server[0] droppedJobsQueue 0
scalar FogSequentialForward.fog[94].server[0] droppedJobsTimout 0
scalar FogSequentialForward.fog[94].server[0] droppedJobsSLA 4
scalar FogSequentialForward.fog[94].server[0] droppedJobsTotal 4
scalar FogSequentialForward.fog[95].dispatcher localJobs 361518
scalar FogSequentialForward.fog[95].dispatcher internalJobs 361518
scalar FogSequentialForward.fog[95].dispatcher externalJobs 10
scalar FogSequentialForward.fog[95].dispatcher remoteJobs 10
scalar FogSequentialForward.fog[95].dispatcher probeQueries 0
scalar FogSequentialForward.fog[95].dispatcher probeAnswers 0
scalar FogSequentialForward.fog[95].dispatcher droppedJobsSLA 0
scalar FogSequentialForward.fog[95].dispatcher jobs_class_1 361528
scalar FogSequentialForward.fog[95].dispatcher remoteJobs_class_1 10
scalar FogSequentialForward.fog[95].dispatcher localJobs_class_1 361518
scalar FogSequentialForward.fog[95].server[0] rho 0.55902230739594
scalar FogSequentialForward.fog[95].server[0] congestionRatio 0
scalar FogSequentialForward.fog[95].server[0] totalJobs 361518
scalar FogSequentialForward.fog[95].server[0] droppedJobsQueue 0
scalar FogSequentialForward.fog[95].server[0] droppedJobsTimout 0
scalar FogSequentialForward.fog[95].server[0] droppedJobsSLA 2
scalar FogSequentialForward.fog[95].server[0] droppedJobsTotal 2
scalar FogSequentialForward.fog[96].dispatcher localJobs 360419
scalar FogSequentialForward.fog[96].dispatcher internalJobs 360419
scalar FogSequentialForward.fog[96].dispatcher externalJobs 11
scalar FogSequentialForward.fog[96].dispatcher remoteJobs 11
scalar FogSequentialForward.fog[96].dispatcher probeQueries 0
scalar FogSequentialForward.fog[96].dispatcher probeAnswers 0
scalar FogSequentialForward.fog[96].dispatcher droppedJobsSLA 0
scalar FogSequentialForward.fog[96].dispatcher jobs_class_1 360430
scalar FogSequentialForward.fog[96].dispatcher remoteJobs_class_1 11
scalar FogSequentialForward.fog[96].dispatcher localJobs_class_1 360419
scalar FogSequentialForward.fog[96].server[0] rho 0.55732923746109
scalar FogSequentialForward.fog[96].server[0] congestionRatio 0
scalar FogSequentialForward.fog[96].server[0] totalJobs 360419
scalar FogSequentialForward.fog[96].server[0] droppedJobsQueue 0
scalar FogSequentialForward.fog[96].server[0] droppedJobsTimout 0
scalar FogSequentialForward.fog[96].server[0] droppedJobsSLA 4
scalar FogSequentialForward.fog[96].server[0] droppedJobsTotal 4
scalar FogSequentialForward.fog[97].dispatcher localJobs 361330
scalar FogSequentialForward.fog[97].dispatcher internalJobs 361319
scalar FogSequentialForward.fog[97].dispatcher externalJobs 14
scalar FogSequentialForward.fog[97].dispatcher remoteJobs 3
scalar FogSequentialForward.fog[97].dispatcher probeQueries 0
scalar FogSequentialForward.fog[97].dispatcher probeAnswers 0
scalar FogSequentialForward.fog[97].dispatcher droppedJobsSLA 0
scalar FogSequentialForward.fog[97].dispatcher jobs_class_1 361333
scalar FogSequentialForward.fog[97].dispatcher remoteJobs_class_1 3
scalar FogSequentialForward.fog[97].dispatcher localJobs_class_1 361330
scalar FogSequentialForward.fog[97].server[0] rho 0.5587352514267
scalar FogSequentialForward.fog[97].server[0] congestionRatio 0
scalar FogSequentialForward.fog[97].server[0] totalJobs 361330
scalar FogSequentialForward.fog[97].server[0] droppedJobsQueue 0
scalar FogSequentialForward.fog[97].server[0] droppedJobsTimout 0
scalar FogSequentialForward.fog[97].server[0] droppedJobsSLA 1
scalar FogSequentialForward.fog[97].server[0] droppedJobsTotal 1
scalar FogSequentialForward.fog[98].dispatcher localJobs 360505
scalar FogSequentialForward.fog[98].dispatcher internalJobs 360500
scalar FogSequentialForward.fog[98].dispatcher externalJobs 13
scalar FogSequentialForward.fog[98].dispatcher remoteJobs 8
scalar FogSequentialForward.fog[98].dispatcher probeQueries 0
scalar FogSequentialForward.fog[98].dispatcher probeAnswers 0
scalar FogSequentialForward.fog[98].dispatcher droppedJobsSLA 0
scalar FogSequentialForward.fog[98].dispatcher jobs_class_1 360513
scalar FogSequentialForward.fog[98].dispatcher remoteJobs_class_1 8
scalar FogSequentialForward.fog[98].dispatcher localJobs_class_1 360505
scalar FogSequentialForward.fog[98].server[0] rho 0.55746811628342
scalar FogSequentialForward.fog[98].server[0] congestionRatio 0
scalar FogSequentialForward.fog[98].server[0] totalJobs 360505
scalar FogSequentialForward.fog[98].server[0] droppedJobsQueue 0
scalar FogSequentialForward.fog[98].server[0] droppedJobsTimout 0
scalar FogSequentialForward.fog[98].server[0] droppedJobsSLA 5
scalar FogSequentialForward.fog[98].server[0] droppedJobsTotal 5
scalar FogSequentialForward.fog[99].dispatcher localJobs 360504
scalar FogSequentialForward.fog[99].dispatcher internalJobs 360513
scalar FogSequentialForward.fog[99].dispatcher externalJobs 9
scalar FogSequentialForward.fog[99].dispatcher remoteJobs 18
scalar FogSequentialForward.fog[99].dispatcher probeQueries 0
scalar FogSequentialForward.fog[99].dispatcher probeAnswers 0
scalar FogSequentialForward.fog[99].dispatcher droppedJobsSLA 0
scalar FogSequentialForward.fog[99].dispatcher jobs_class_1 360522
scalar FogSequentialForward.fog[99].dispatcher remoteJobs_class_1 18
scalar FogSequentialForward.fog[99].dispatcher localJobs_class_1 360504
scalar FogSequentialForward.fog[99].server[0] rho 0.5574317574501
scalar FogSequentialForward.fog[99].server[0] congestionRatio 0
scalar FogSequentialForward.fog[99].server[0] totalJobs 360504
scalar FogSequentialForward.fog[99].server[0] droppedJobsQueue 0
scalar FogSequentialForward.fog[99].server[0] droppedJobsTimout 0
scalar FogSequentialForward.fog[99].server[0] droppedJobsSLA 6
scalar FogSequentialForward.fog[99].server[0] droppedJobsTotal 6
scalar FogSequentialForward.sink avg_responseTime_1 0.027225664936697
scalar FogSequentialForward.sink p90_responseTime_1 0.01474163093
scalar FogSequentialForward.sink med_responseTime_1 0.01474163093
scalar FogSequentialForward.sink avg_delayTime_1 0
scalar FogSequentialForward.sink p90_delayTime_1 0
scalar FogSequentialForward.sink med_delayTime_1 0
scalar FogSequentialForward.sink avg_queuingTime_1 0.010525125648192
scalar FogSequentialForward.sink p90_queuingTime_1 0
scalar FogSequentialForward.sink med_queuingTime_1 0
scalar FogSequentialForward.sink avg_serviceTime_1 0.016700019697169
scalar FogSequentialForward.sink p90_serviceTime_1 0.01474163093
scalar FogSequentialForward.sink med_serviceTime_1 0.01474163093
scalar FogSequentialForward.sink avg_balancerTime_1 5.1959133933463e-07
scalar FogSequentialForward.sink p90_balancerTime_1 0
scalar FogSequentialForward.sink med_balancerTime_1 0
scalar FogSequentialForward.sink avg_balancerCount_1 1.0000311132539
scalar FogSequentialForward.sink p90_balancerCount_1 1
scalar FogSequentialForward.sink med_balancerCount_1 1

