version 2
run Fog-mul_10-rho_08-thr_7-2-20190714-04:29:45-98353
attr configname Fog-mul_10-rho_08-thr_7
attr datetime 20190714-04:29:45
attr experiment Fog-mul_10-rho_08-thr_7
attr inifile FogSequentialForward.ini
attr iterationvars ""
attr iterationvarsf ""
attr measurement ""
attr network FogSequentialForward
attr processid 98353
attr repetition 2
attr replication #2
attr resultdir results
attr runnumber 2
attr seedset 2
param FogSequentialForward.proctimeMul 1.0
param FogSequentialForward.rho 0.8
param FogSequentialForward.fog[*].dispatcher.thr 7
param FogSequentialForward.nSources 100
param FogSequentialForward.rho 0.9
param FogSequentialForward.proctimeMul 1.0
param FogSequentialForward.source[*].appId 1
param FogSequentialForward.source[*].realTime true
param FogSequentialForward.source[*].multiHop true
param FogSequentialForward.fog[*].nServers 1
param FogSequentialForward.fog[*].dispatcher.fanOut 1
param FogSequentialForward.fog[*].server[*].timeSlice -1s
param FogSequentialForward.fog[*].server[*].timeout -1s
param FogSequentialForward.fog[*].server[*].capacity 20
param FogSequentialForward.fog[*].server[*].fifo true
param FogSequentialForward.fog[*].server[*].maxServiceTime -1s
param FogSequentialForward.fog[*].dispatcher.thr 1

scalar FogSequentialForward.fog[0].dispatcher localJobs 14085
scalar FogSequentialForward.fog[0].dispatcher internalJobs 14242
scalar FogSequentialForward.fog[0].dispatcher externalJobs 3817161
scalar FogSequentialForward.fog[0].dispatcher remoteJobs 3816940
scalar FogSequentialForward.fog[0].dispatcher probeQueries 0
scalar FogSequentialForward.fog[0].dispatcher probeAnswers 0
scalar FogSequentialForward.fog[0].dispatcher droppedJobsSLA 378
scalar FogSequentialForward.fog[0].dispatcher jobs_class_1 3831403
scalar FogSequentialForward.fog[0].dispatcher remoteJobs_class_1 3816940
scalar FogSequentialForward.fog[0].dispatcher localJobs_class_1 14085
scalar FogSequentialForward.fog[0].dispatcher droppedJobsSLA_class_1 378
scalar FogSequentialForward.fog[0].server[0] rho 0.99999630451202
scalar FogSequentialForward.fog[0].server[0] congestionRatio 0
scalar FogSequentialForward.fog[0].server[0] totalJobs 14085
scalar FogSequentialForward.fog[0].server[0] droppedJobsQueue 774
scalar FogSequentialForward.fog[0].server[0] droppedJobsTimout 0
scalar FogSequentialForward.fog[0].server[0] droppedJobsSLA 8311
scalar FogSequentialForward.fog[0].server[0] droppedJobsTotal 9085
scalar FogSequentialForward.fog[1].dispatcher localJobs 14078
scalar FogSequentialForward.fog[1].dispatcher internalJobs 14390
scalar FogSequentialForward.fog[1].dispatcher externalJobs 3821414
scalar FogSequentialForward.fog[1].dispatcher remoteJobs 3821364
scalar FogSequentialForward.fog[1].dispatcher probeQueries 0
scalar FogSequentialForward.fog[1].dispatcher probeAnswers 0
scalar FogSequentialForward.fog[1].dispatcher droppedJobsSLA 362
scalar FogSequentialForward.fog[1].dispatcher jobs_class_1 3835804
scalar FogSequentialForward.fog[1].dispatcher remoteJobs_class_1 3821364
scalar FogSequentialForward.fog[1].dispatcher localJobs_class_1 14078
scalar FogSequentialForward.fog[1].dispatcher droppedJobsSLA_class_1 362
scalar FogSequentialForward.fog[1].server[0] rho 0.9999406337738
scalar FogSequentialForward.fog[1].server[0] congestionRatio 0
scalar FogSequentialForward.fog[1].server[0] totalJobs 14078
scalar FogSequentialForward.fog[1].server[0] droppedJobsQueue 773
scalar FogSequentialForward.fog[1].server[0] droppedJobsTimout 0
scalar FogSequentialForward.fog[1].server[0] droppedJobsSLA 8365
scalar FogSequentialForward.fog[1].server[0] droppedJobsTotal 9138
scalar FogSequentialForward.fog[2].dispatcher localJobs 14032
scalar FogSequentialForward.fog[2].dispatcher internalJobs 14493
scalar FogSequentialForward.fog[2].dispatcher externalJobs 3817421
scalar FogSequentialForward.fog[2].dispatcher remoteJobs 3817501
scalar FogSequentialForward.fog[2].dispatcher probeQueries 0
scalar FogSequentialForward.fog[2].dispatcher probeAnswers 0
scalar FogSequentialForward.fog[2].dispatcher droppedJobsSLA 381
scalar FogSequentialForward.fog[2].dispatcher jobs_class_1 3831914
scalar FogSequentialForward.fog[2].dispatcher remoteJobs_class_1 3817501
scalar FogSequentialForward.fog[2].dispatcher localJobs_class_1 14032
scalar FogSequentialForward.fog[2].dispatcher droppedJobsSLA_class_1 381
scalar FogSequentialForward.fog[2].server[0] rho 0.99999523162842
scalar FogSequentialForward.fog[2].server[0] congestionRatio 0
scalar FogSequentialForward.fog[2].server[0] totalJobs 14032
scalar FogSequentialForward.fog[2].server[0] droppedJobsQueue 771
scalar FogSequentialForward.fog[2].server[0] droppedJobsTimout 0
scalar FogSequentialForward.fog[2].server[0] droppedJobsSLA 8371
scalar FogSequentialForward.fog[2].server[0] droppedJobsTotal 9142
scalar FogSequentialForward.fog[3].dispatcher localJobs 14076
scalar FogSequentialForward.fog[3].dispatcher internalJobs 14277
scalar FogSequentialForward.fog[3].dispatcher externalJobs 3822441
scalar FogSequentialForward.fog[3].dispatcher remoteJobs 3822273
scalar FogSequentialForward.fog[3].dispatcher probeQueries 0
scalar FogSequentialForward.fog[3].dispatcher probeAnswers 0
scalar FogSequentialForward.fog[3].dispatcher droppedJobsSLA 369
scalar FogSequentialForward.fog[3].dispatcher jobs_class_1 3836718
scalar FogSequentialForward.fog[3].dispatcher remoteJobs_class_1 3822273
scalar FogSequentialForward.fog[3].dispatcher localJobs_class_1 14076
scalar FogSequentialForward.fog[3].dispatcher droppedJobsSLA_class_1 369
scalar FogSequentialForward.fog[3].server[0] rho 0.99999421834946
scalar FogSequentialForward.fog[3].server[0] congestionRatio 0
scalar FogSequentialForward.fog[3].server[0] totalJobs 14076
scalar FogSequentialForward.fog[3].server[0] droppedJobsQueue 771
scalar FogSequentialForward.fog[3].server[0] droppedJobsTimout 0
scalar FogSequentialForward.fog[3].server[0] droppedJobsSLA 8304
scalar FogSequentialForward.fog[3].server[0] droppedJobsTotal 9075
scalar FogSequentialForward.fog[4].dispatcher localJobs 14032
scalar FogSequentialForward.fog[4].dispatcher internalJobs 14376
scalar FogSequentialForward.fog[4].dispatcher externalJobs 3820427
scalar FogSequentialForward.fog[4].dispatcher remoteJobs 3820423
scalar FogSequentialForward.fog[4].dispatcher probeQueries 0
scalar FogSequentialForward.fog[4].dispatcher probeAnswers 0
scalar FogSequentialForward.fog[4].dispatcher droppedJobsSLA 348
scalar FogSequentialForward.fog[4].dispatcher jobs_class_1 3834803
scalar FogSequentialForward.fog[4].dispatcher remoteJobs_class_1 3820423
scalar FogSequentialForward.fog[4].dispatcher localJobs_class_1 14032
scalar FogSequentialForward.fog[4].dispatcher droppedJobsSLA_class_1 348
scalar FogSequentialForward.fog[4].server[0] rho 0.9999977350235
scalar FogSequentialForward.fog[4].server[0] congestionRatio 0
scalar FogSequentialForward.fog[4].server[0] totalJobs 14032
scalar FogSequentialForward.fog[4].server[0] droppedJobsQueue 771
scalar FogSequentialForward.fog[4].server[0] droppedJobsTimout 0
scalar FogSequentialForward.fog[4].server[0] droppedJobsSLA 8295
scalar FogSequentialForward.fog[4].server[0] droppedJobsTotal 9066
scalar FogSequentialForward.fog[5].dispatcher localJobs 14010
scalar FogSequentialForward.fog[5].dispatcher internalJobs 14297
scalar FogSequentialForward.fog[5].dispatcher externalJobs 3819116
scalar FogSequentialForward.fog[5].dispatcher remoteJobs 3819019
scalar FogSequentialForward.fog[5].dispatcher probeQueries 0
scalar FogSequentialForward.fog[5].dispatcher probeAnswers 0
scalar FogSequentialForward.fog[5].dispatcher droppedJobsSLA 384
scalar FogSequentialForward.fog[5].dispatcher jobs_class_1 3833413
scalar FogSequentialForward.fog[5].dispatcher remoteJobs_class_1 3819019
scalar FogSequentialForward.fog[5].dispatcher localJobs_class_1 14010
scalar FogSequentialForward.fog[5].dispatcher droppedJobsSLA_class_1 384
scalar FogSequentialForward.fog[5].server[0] rho 0.99999606609344
scalar FogSequentialForward.fog[5].server[0] congestionRatio 0
scalar FogSequentialForward.fog[5].server[0] totalJobs 14010
scalar FogSequentialForward.fog[5].server[0] droppedJobsQueue 767
scalar FogSequentialForward.fog[5].server[0] droppedJobsTimout 0
scalar FogSequentialForward.fog[5].server[0] droppedJobsSLA 8323
scalar FogSequentialForward.fog[5].server[0] droppedJobsTotal 9090
scalar FogSequentialForward.fog[6].dispatcher localJobs 14073
scalar FogSequentialForward.fog[6].dispatcher internalJobs 14287
scalar FogSequentialForward.fog[6].dispatcher externalJobs 3818637
scalar FogSequentialForward.fog[6].dispatcher remoteJobs 3818447
scalar FogSequentialForward.fog[6].dispatcher probeQueries 0
scalar FogSequentialForward.fog[6].dispatcher probeAnswers 0
scalar FogSequentialForward.fog[6].dispatcher droppedJobsSLA 404
scalar FogSequentialForward.fog[6].dispatcher jobs_class_1 3832924
scalar FogSequentialForward.fog[6].dispatcher remoteJobs_class_1 3818447
scalar FogSequentialForward.fog[6].dispatcher localJobs_class_1 14073
scalar FogSequentialForward.fog[6].dispatcher droppedJobsSLA_class_1 404
scalar FogSequentialForward.fog[6].server[0] rho 0.99999666213989
scalar FogSequentialForward.fog[6].server[0] congestionRatio 0
scalar FogSequentialForward.fog[6].server[0] totalJobs 14073
scalar FogSequentialForward.fog[6].server[0] droppedJobsQueue 771
scalar FogSequentialForward.fog[6].server[0] droppedJobsTimout 0
scalar FogSequentialForward.fog[6].server[0] droppedJobsSLA 8361
scalar FogSequentialForward.fog[6].server[0] droppedJobsTotal 9132
scalar FogSequentialForward.fog[7].dispatcher localJobs 14061
scalar FogSequentialForward.fog[7].dispatcher internalJobs 14506
scalar FogSequentialForward.fog[7].dispatcher externalJobs 3821652
scalar FogSequentialForward.fog[7].dispatcher remoteJobs 3821734
scalar FogSequentialForward.fog[7].dispatcher probeQueries 0
scalar FogSequentialForward.fog[7].dispatcher probeAnswers 0
scalar FogSequentialForward.fog[7].dispatcher droppedJobsSLA 363
scalar FogSequentialForward.fog[7].dispatcher jobs_class_1 3836158
scalar FogSequentialForward.fog[7].dispatcher remoteJobs_class_1 3821734
scalar FogSequentialForward.fog[7].dispatcher localJobs_class_1 14061
scalar FogSequentialForward.fog[7].dispatcher droppedJobsSLA_class_1 363
scalar FogSequentialForward.fog[7].server[0] rho 0.99999344348907
scalar FogSequentialForward.fog[7].server[0] congestionRatio 0
scalar FogSequentialForward.fog[7].server[0] totalJobs 14061
scalar FogSequentialForward.fog[7].server[0] droppedJobsQueue 772
scalar FogSequentialForward.fog[7].server[0] droppedJobsTimout 0
scalar FogSequentialForward.fog[7].server[0] droppedJobsSLA 8328
scalar FogSequentialForward.fog[7].server[0] droppedJobsTotal 9100
scalar FogSequentialForward.fog[8].dispatcher localJobs 14085
scalar FogSequentialForward.fog[8].dispatcher internalJobs 14475
scalar FogSequentialForward.fog[8].dispatcher externalJobs 3815919
scalar FogSequentialForward.fog[8].dispatcher remoteJobs 3815899
scalar FogSequentialForward.fog[8].dispatcher probeQueries 0
scalar FogSequentialForward.fog[8].dispatcher probeAnswers 0
scalar FogSequentialForward.fog[8].dispatcher droppedJobsSLA 410
scalar FogSequentialForward.fog[8].dispatcher jobs_class_1 3830394
scalar FogSequentialForward.fog[8].dispatcher remoteJobs_class_1 3815899
scalar FogSequentialForward.fog[8].dispatcher localJobs_class_1 14085
scalar FogSequentialForward.fog[8].dispatcher droppedJobsSLA_class_1 410
scalar FogSequentialForward.fog[8].server[0] rho 0.99999612569809
scalar FogSequentialForward.fog[8].server[0] congestionRatio 0
scalar FogSequentialForward.fog[8].server[0] totalJobs 14085
scalar FogSequentialForward.fog[8].server[0] droppedJobsQueue 772
scalar FogSequentialForward.fog[8].server[0] droppedJobsTimout 0
scalar FogSequentialForward.fog[8].server[0] droppedJobsSLA 8338
scalar FogSequentialForward.fog[8].server[0] droppedJobsTotal 9110
scalar FogSequentialForward.fog[9].dispatcher localJobs 14055
scalar FogSequentialForward.fog[9].dispatcher internalJobs 14523
scalar FogSequentialForward.fog[9].dispatcher externalJobs 3820256
scalar FogSequentialForward.fog[9].dispatcher remoteJobs 3820343
scalar FogSequentialForward.fog[9].dispatcher probeQueries 0
scalar FogSequentialForward.fog[9].dispatcher probeAnswers 0
scalar FogSequentialForward.fog[9].dispatcher droppedJobsSLA 381
scalar FogSequentialForward.fog[9].dispatcher jobs_class_1 3834779
scalar FogSequentialForward.fog[9].dispatcher remoteJobs_class_1 3820343
scalar FogSequentialForward.fog[9].dispatcher localJobs_class_1 14055
scalar FogSequentialForward.fog[9].dispatcher droppedJobsSLA_class_1 381
scalar FogSequentialForward.fog[9].server[0] rho 0.99999541044235
scalar FogSequentialForward.fog[9].server[0] congestionRatio 0
scalar FogSequentialForward.fog[9].server[0] totalJobs 14055
scalar FogSequentialForward.fog[9].server[0] droppedJobsQueue 773
scalar FogSequentialForward.fog[9].server[0] droppedJobsTimout 0
scalar FogSequentialForward.fog[9].server[0] droppedJobsSLA 8319
scalar FogSequentialForward.fog[9].server[0] droppedJobsTotal 9092
scalar FogSequentialForward.fog[10].dispatcher localJobs 14091
scalar FogSequentialForward.fog[10].dispatcher internalJobs 14470
scalar FogSequentialForward.fog[10].dispatcher externalJobs 3817646
scalar FogSequentialForward.fog[10].dispatcher remoteJobs 3817670
scalar FogSequentialForward.fog[10].dispatcher probeQueries 0
scalar FogSequentialForward.fog[10].dispatcher probeAnswers 0
scalar FogSequentialForward.fog[10].dispatcher droppedJobsSLA 355
scalar FogSequentialForward.fog[10].dispatcher jobs_class_1 3832116
scalar FogSequentialForward.fog[10].dispatcher remoteJobs_class_1 3817670
scalar FogSequentialForward.fog[10].dispatcher localJobs_class_1 14091
scalar FogSequentialForward.fog[10].dispatcher droppedJobsSLA_class_1 355
scalar FogSequentialForward.fog[10].server[0] rho 0.99999266862869
scalar FogSequentialForward.fog[10].server[0] congestionRatio 0
scalar FogSequentialForward.fog[10].server[0] totalJobs 14091
scalar FogSequentialForward.fog[10].server[0] droppedJobsQueue 772
scalar FogSequentialForward.fog[10].server[0] droppedJobsTimout 0
scalar FogSequentialForward.fog[10].server[0] droppedJobsSLA 8353
scalar FogSequentialForward.fog[10].server[0] droppedJobsTotal 9125
scalar FogSequentialForward.fog[11].dispatcher localJobs 13994
scalar FogSequentialForward.fog[11].dispatcher internalJobs 14507
scalar FogSequentialForward.fog[11].dispatcher externalJobs 3819308
scalar FogSequentialForward.fog[11].dispatcher remoteJobs 3819464
scalar FogSequentialForward.fog[11].dispatcher probeQueries 0
scalar FogSequentialForward.fog[11].dispatcher probeAnswers 0
scalar FogSequentialForward.fog[11].dispatcher droppedJobsSLA 357
scalar FogSequentialForward.fog[11].dispatcher jobs_class_1 3833815
scalar FogSequentialForward.fog[11].dispatcher remoteJobs_class_1 3819464
scalar FogSequentialForward.fog[11].dispatcher localJobs_class_1 13994
scalar FogSequentialForward.fog[11].dispatcher droppedJobsSLA_class_1 357
scalar FogSequentialForward.fog[11].server[0] rho 0.99999815225601
scalar FogSequentialForward.fog[11].server[0] congestionRatio 0
scalar FogSequentialForward.fog[11].server[0] totalJobs 13994
scalar FogSequentialForward.fog[11].server[0] droppedJobsQueue 768
scalar FogSequentialForward.fog[11].server[0] droppedJobsTimout 0
scalar FogSequentialForward.fog[11].server[0] droppedJobsSLA 8256
scalar FogSequentialForward.fog[11].server[0] droppedJobsTotal 9024
scalar FogSequentialForward.fog[12].dispatcher localJobs 14008
scalar FogSequentialForward.fog[12].dispatcher internalJobs 14269
scalar FogSequentialForward.fog[12].dispatcher externalJobs 3819453
scalar FogSequentialForward.fog[12].dispatcher remoteJobs 3819369
scalar FogSequentialForward.fog[12].dispatcher probeQueries 0
scalar FogSequentialForward.fog[12].dispatcher probeAnswers 0
scalar FogSequentialForward.fog[12].dispatcher droppedJobsSLA 345
scalar FogSequentialForward.fog[12].dispatcher jobs_class_1 3833722
scalar FogSequentialForward.fog[12].dispatcher remoteJobs_class_1 3819369
scalar FogSequentialForward.fog[12].dispatcher localJobs_class_1 14008
scalar FogSequentialForward.fog[12].dispatcher droppedJobsSLA_class_1 345
scalar FogSequentialForward.fog[12].server[0] rho 0.99996483325958
scalar FogSequentialForward.fog[12].server[0] congestionRatio 0
scalar FogSequentialForward.fog[12].server[0] totalJobs 14008
scalar FogSequentialForward.fog[12].server[0] droppedJobsQueue 769
scalar FogSequentialForward.fog[12].server[0] droppedJobsTimout 0
scalar FogSequentialForward.fog[12].server[0] droppedJobsSLA 8236
scalar FogSequentialForward.fog[12].server[0] droppedJobsTotal 9005
scalar FogSequentialForward.fog[13].dispatcher localJobs 14062
scalar FogSequentialForward.fog[13].dispatcher internalJobs 14307
scalar FogSequentialForward.fog[13].dispatcher externalJobs 3820153
scalar FogSequentialForward.fog[13].dispatcher remoteJobs 3820015
scalar FogSequentialForward.fog[13].dispatcher probeQueries 0
scalar FogSequentialForward.fog[13].dispatcher probeAnswers 0
scalar FogSequentialForward.fog[13].dispatcher droppedJobsSLA 383
scalar FogSequentialForward.fog[13].dispatcher jobs_class_1 3834460
scalar FogSequentialForward.fog[13].dispatcher remoteJobs_class_1 3820015
scalar FogSequentialForward.fog[13].dispatcher localJobs_class_1 14062
scalar FogSequentialForward.fog[13].dispatcher droppedJobsSLA_class_1 383
scalar FogSequentialForward.fog[13].server[0] rho 0.99999570846558
scalar FogSequentialForward.fog[13].server[0] congestionRatio 0
scalar FogSequentialForward.fog[13].server[0] totalJobs 14062
scalar FogSequentialForward.fog[13].server[0] droppedJobsQueue 768
scalar FogSequentialForward.fog[13].server[0] droppedJobsTimout 0
scalar FogSequentialForward.fog[13].server[0] droppedJobsSLA 8346
scalar FogSequentialForward.fog[13].server[0] droppedJobsTotal 9114
scalar FogSequentialForward.fog[14].dispatcher localJobs 14103
scalar FogSequentialForward.fog[14].dispatcher internalJobs 14815
scalar FogSequentialForward.fog[14].dispatcher externalJobs 3817260
scalar FogSequentialForward.fog[14].dispatcher remoteJobs 3817592
scalar FogSequentialForward.fog[14].dispatcher probeQueries 0
scalar FogSequentialForward.fog[14].dispatcher probeAnswers 0
scalar FogSequentialForward.fog[14].dispatcher droppedJobsSLA 380
scalar FogSequentialForward.fog[14].dispatcher jobs_class_1 3832075
scalar FogSequentialForward.fog[14].dispatcher remoteJobs_class_1 3817592
scalar FogSequentialForward.fog[14].dispatcher localJobs_class_1 14103
scalar FogSequentialForward.fog[14].dispatcher droppedJobsSLA_class_1 380
scalar FogSequentialForward.fog[14].server[0] rho 0.99999004602432
scalar FogSequentialForward.fog[14].server[0] congestionRatio 0
scalar FogSequentialForward.fog[14].server[0] totalJobs 14103
scalar FogSequentialForward.fog[14].server[0] droppedJobsQueue 769
scalar FogSequentialForward.fog[14].server[0] droppedJobsTimout 0
scalar FogSequentialForward.fog[14].server[0] droppedJobsSLA 8363
scalar FogSequentialForward.fog[14].server[0] droppedJobsTotal 9132
scalar FogSequentialForward.fog[15].dispatcher localJobs 14032
scalar FogSequentialForward.fog[15].dispatcher internalJobs 14496
scalar FogSequentialForward.fog[15].dispatcher externalJobs 3820204
scalar FogSequentialForward.fog[15].dispatcher remoteJobs 3820316
scalar FogSequentialForward.fog[15].dispatcher probeQueries 0
scalar FogSequentialForward.fog[15].dispatcher probeAnswers 0
scalar FogSequentialForward.fog[15].dispatcher droppedJobsSLA 352
scalar FogSequentialForward.fog[15].dispatcher jobs_class_1 3834700
scalar FogSequentialForward.fog[15].dispatcher remoteJobs_class_1 3820316
scalar FogSequentialForward.fog[15].dispatcher localJobs_class_1 14032
scalar FogSequentialForward.fog[15].dispatcher droppedJobsSLA_class_1 352
scalar FogSequentialForward.fog[15].server[0] rho 0.99999493360519
scalar FogSequentialForward.fog[15].server[0] congestionRatio 0
scalar FogSequentialForward.fog[15].server[0] totalJobs 14032
scalar FogSequentialForward.fog[15].server[0] droppedJobsQueue 769
scalar FogSequentialForward.fog[15].server[0] droppedJobsTimout 0
scalar FogSequentialForward.fog[15].server[0] droppedJobsSLA 8300
scalar FogSequentialForward.fog[15].server[0] droppedJobsTotal 9069
scalar FogSequentialForward.fog[16].dispatcher localJobs 14056
scalar FogSequentialForward.fog[16].dispatcher internalJobs 14472
scalar FogSequentialForward.fog[16].dispatcher externalJobs 3818762
scalar FogSequentialForward.fog[16].dispatcher remoteJobs 3818794
scalar FogSequentialForward.fog[16].dispatcher probeQueries 0
scalar FogSequentialForward.fog[16].dispatcher probeAnswers 0
scalar FogSequentialForward.fog[16].dispatcher droppedJobsSLA 384
scalar FogSequentialForward.fog[16].dispatcher jobs_class_1 3833234
scalar FogSequentialForward.fog[16].dispatcher remoteJobs_class_1 3818794
scalar FogSequentialForward.fog[16].dispatcher localJobs_class_1 14056
scalar FogSequentialForward.fog[16].dispatcher droppedJobsSLA_class_1 384
scalar FogSequentialForward.fog[16].server[0] rho 0.99999684095383
scalar FogSequentialForward.fog[16].server[0] congestionRatio 0
scalar FogSequentialForward.fog[16].server[0] totalJobs 14056
scalar FogSequentialForward.fog[16].server[0] droppedJobsQueue 772
scalar FogSequentialForward.fog[16].server[0] droppedJobsTimout 0
scalar FogSequentialForward.fog[16].server[0] droppedJobsSLA 8329
scalar FogSequentialForward.fog[16].server[0] droppedJobsTotal 9101
scalar FogSequentialForward.fog[17].dispatcher localJobs 14000
scalar FogSequentialForward.fog[17].dispatcher internalJobs 14241
scalar FogSequentialForward.fog[17].dispatcher externalJobs 3819326
scalar FogSequentialForward.fog[17].dispatcher remoteJobs 3819184
scalar FogSequentialForward.fog[17].dispatcher probeQueries 0
scalar FogSequentialForward.fog[17].dispatcher probeAnswers 0
scalar FogSequentialForward.fog[17].dispatcher droppedJobsSLA 383
scalar FogSequentialForward.fog[17].dispatcher jobs_class_1 3833567
scalar FogSequentialForward.fog[17].dispatcher remoteJobs_class_1 3819184
scalar FogSequentialForward.fog[17].dispatcher localJobs_class_1 14000
scalar FogSequentialForward.fog[17].dispatcher droppedJobsSLA_class_1 383
scalar FogSequentialForward.fog[17].server[0] rho 0.99999731779099
scalar FogSequentialForward.fog[17].server[0] congestionRatio 0
scalar FogSequentialForward.fog[17].server[0] totalJobs 14000
scalar FogSequentialForward.fog[17].server[0] droppedJobsQueue 771
scalar FogSequentialForward.fog[17].server[0] droppedJobsTimout 0
scalar FogSequentialForward.fog[17].server[0] droppedJobsSLA 8299
scalar FogSequentialForward.fog[17].server[0] droppedJobsTotal 9070
scalar FogSequentialForward.fog[18].dispatcher localJobs 14137
scalar FogSequentialForward.fog[18].dispatcher internalJobs 14488
scalar FogSequentialForward.fog[18].dispatcher externalJobs 3822300
scalar FogSequentialForward.fog[18].dispatcher remoteJobs 3822276
scalar FogSequentialForward.fog[18].dispatcher probeQueries 0
scalar FogSequentialForward.fog[18].dispatcher probeAnswers 0
scalar FogSequentialForward.fog[18].dispatcher droppedJobsSLA 375
scalar FogSequentialForward.fog[18].dispatcher jobs_class_1 3836788
scalar FogSequentialForward.fog[18].dispatcher remoteJobs_class_1 3822276
scalar FogSequentialForward.fog[18].dispatcher localJobs_class_1 14137
scalar FogSequentialForward.fog[18].dispatcher droppedJobsSLA_class_1 375
scalar FogSequentialForward.fog[18].server[0] rho 0.99999517202377
scalar FogSequentialForward.fog[18].server[0] congestionRatio 0
scalar FogSequentialForward.fog[18].server[0] totalJobs 14137
scalar FogSequentialForward.fog[18].server[0] droppedJobsQueue 775
scalar FogSequentialForward.fog[18].server[0] droppedJobsTimout 0
scalar FogSequentialForward.fog[18].server[0] droppedJobsSLA 8378
scalar FogSequentialForward.fog[18].server[0] droppedJobsTotal 9153
scalar FogSequentialForward.fog[19].dispatcher localJobs 14067
scalar FogSequentialForward.fog[19].dispatcher internalJobs 14485
scalar FogSequentialForward.fog[19].dispatcher externalJobs 3816389
scalar FogSequentialForward.fog[19].dispatcher remoteJobs 3816438
scalar FogSequentialForward.fog[19].dispatcher probeQueries 0
scalar FogSequentialForward.fog[19].dispatcher probeAnswers 0
scalar FogSequentialForward.fog[19].dispatcher droppedJobsSLA 369
scalar FogSequentialForward.fog[19].dispatcher jobs_class_1 3830874
scalar FogSequentialForward.fog[19].dispatcher remoteJobs_class_1 3816438
scalar FogSequentialForward.fog[19].dispatcher localJobs_class_1 14067
scalar FogSequentialForward.fog[19].dispatcher droppedJobsSLA_class_1 369
scalar FogSequentialForward.fog[19].server[0] rho 0.99999606609344
scalar FogSequentialForward.fog[19].server[0] congestionRatio 0
scalar FogSequentialForward.fog[19].server[0] totalJobs 14067
scalar FogSequentialForward.fog[19].server[0] droppedJobsQueue 773
scalar FogSequentialForward.fog[19].server[0] droppedJobsTimout 0
scalar FogSequentialForward.fog[19].server[0] droppedJobsSLA 8288
scalar FogSequentialForward.fog[19].server[0] droppedJobsTotal 9061
scalar FogSequentialForward.fog[20].dispatcher localJobs 14048
scalar FogSequentialForward.fog[20].dispatcher internalJobs 14334
scalar FogSequentialForward.fog[20].dispatcher externalJobs 3818064
scalar FogSequentialForward.fog[20].dispatcher remoteJobs 3817987
scalar FogSequentialForward.fog[20].dispatcher probeQueries 0
scalar FogSequentialForward.fog[20].dispatcher probeAnswers 0
scalar FogSequentialForward.fog[20].dispatcher droppedJobsSLA 363
scalar FogSequentialForward.fog[20].dispatcher jobs_class_1 3832398
scalar FogSequentialForward.fog[20].dispatcher remoteJobs_class_1 3817987
scalar FogSequentialForward.fog[20].dispatcher localJobs_class_1 14048
scalar FogSequentialForward.fog[20].dispatcher droppedJobsSLA_class_1 363
scalar FogSequentialForward.fog[20].server[0] rho 0.99999642372131
scalar FogSequentialForward.fog[20].server[0] congestionRatio 0
scalar FogSequentialForward.fog[20].server[0] totalJobs 14048
scalar FogSequentialForward.fog[20].server[0] droppedJobsQueue 772
scalar FogSequentialForward.fog[20].server[0] droppedJobsTimout 0
scalar FogSequentialForward.fog[20].server[0] droppedJobsSLA 8316
scalar FogSequentialForward.fog[20].server[0] droppedJobsTotal 9088
scalar FogSequentialForward.fog[21].dispatcher localJobs 14036
scalar FogSequentialForward.fog[21].dispatcher internalJobs 14584
scalar FogSequentialForward.fog[21].dispatcher externalJobs 3821706
scalar FogSequentialForward.fog[21].dispatcher remoteJobs 3821923
scalar FogSequentialForward.fog[21].dispatcher probeQueries 0
scalar FogSequentialForward.fog[21].dispatcher probeAnswers 0
scalar FogSequentialForward.fog[21].dispatcher droppedJobsSLA 331
scalar FogSequentialForward.fog[21].dispatcher jobs_class_1 3836290
scalar FogSequentialForward.fog[21].dispatcher remoteJobs_class_1 3821923
scalar FogSequentialForward.fog[21].dispatcher localJobs_class_1 14036
scalar FogSequentialForward.fog[21].dispatcher droppedJobsSLA_class_1 331
scalar FogSequentialForward.fog[21].server[0] rho 0.99999606609344
scalar FogSequentialForward.fog[21].server[0] congestionRatio 0
scalar FogSequentialForward.fog[21].server[0] totalJobs 14036
scalar FogSequentialForward.fog[21].server[0] droppedJobsQueue 770
scalar FogSequentialForward.fog[21].server[0] droppedJobsTimout 0
scalar FogSequentialForward.fog[21].server[0] droppedJobsSLA 8273
scalar FogSequentialForward.fog[21].server[0] droppedJobsTotal 9043
scalar FogSequentialForward.fog[22].dispatcher localJobs 14068
scalar FogSequentialForward.fog[22].dispatcher internalJobs 14557
scalar FogSequentialForward.fog[22].dispatcher externalJobs 3818725
scalar FogSequentialForward.fog[22].dispatcher remoteJobs 3818840
scalar FogSequentialForward.fog[22].dispatcher probeQueries 0
scalar FogSequentialForward.fog[22].dispatcher probeAnswers 0
scalar FogSequentialForward.fog[22].dispatcher droppedJobsSLA 374
scalar FogSequentialForward.fog[22].dispatcher jobs_class_1 3833282
scalar FogSequentialForward.fog[22].dispatcher remoteJobs_class_1 3818840
scalar FogSequentialForward.fog[22].dispatcher localJobs_class_1 14068
scalar FogSequentialForward.fog[22].dispatcher droppedJobsSLA_class_1 374
scalar FogSequentialForward.fog[22].server[0] rho 0.99999678134918
scalar FogSequentialForward.fog[22].server[0] congestionRatio 0
scalar FogSequentialForward.fog[22].server[0] totalJobs 14068
scalar FogSequentialForward.fog[22].server[0] droppedJobsQueue 774
scalar FogSequentialForward.fog[22].server[0] droppedJobsTimout 0
scalar FogSequentialForward.fog[22].server[0] droppedJobsSLA 8381
scalar FogSequentialForward.fog[22].server[0] droppedJobsTotal 9155
scalar FogSequentialForward.fog[23].dispatcher localJobs 14048
scalar FogSequentialForward.fog[23].dispatcher internalJobs 14286
scalar FogSequentialForward.fog[23].dispatcher externalJobs 3819457
scalar FogSequentialForward.fog[23].dispatcher remoteJobs 3819314
scalar FogSequentialForward.fog[23].dispatcher probeQueries 0
scalar FogSequentialForward.fog[23].dispatcher probeAnswers 0
scalar FogSequentialForward.fog[23].dispatcher droppedJobsSLA 381
scalar FogSequentialForward.fog[23].dispatcher jobs_class_1 3833743
scalar FogSequentialForward.fog[23].dispatcher remoteJobs_class_1 3819314
scalar FogSequentialForward.fog[23].dispatcher localJobs_class_1 14048
scalar FogSequentialForward.fog[23].dispatcher droppedJobsSLA_class_1 381
scalar FogSequentialForward.fog[23].server[0] rho 0.99999231100082
scalar FogSequentialForward.fog[23].server[0] congestionRatio 0
scalar FogSequentialForward.fog[23].server[0] totalJobs 14048
scalar FogSequentialForward.fog[23].server[0] droppedJobsQueue 767
scalar FogSequentialForward.fog[23].server[0] droppedJobsTimout 0
scalar FogSequentialForward.fog[23].server[0] droppedJobsSLA 8327
scalar FogSequentialForward.fog[23].server[0] droppedJobsTotal 9094
scalar FogSequentialForward.fog[24].dispatcher localJobs 14040
scalar FogSequentialForward.fog[24].dispatcher internalJobs 14436
scalar FogSequentialForward.fog[24].dispatcher externalJobs 3818380
scalar FogSequentialForward.fog[24].dispatcher remoteJobs 3818413
scalar FogSequentialForward.fog[24].dispatcher probeQueries 0
scalar FogSequentialForward.fog[24].dispatcher probeAnswers 0
scalar FogSequentialForward.fog[24].dispatcher droppedJobsSLA 363
scalar FogSequentialForward.fog[24].dispatcher jobs_class_1 3832816
scalar FogSequentialForward.fog[24].dispatcher remoteJobs_class_1 3818413
scalar FogSequentialForward.fog[24].dispatcher localJobs_class_1 14040
scalar FogSequentialForward.fog[24].dispatcher droppedJobsSLA_class_1 363
scalar FogSequentialForward.fog[24].server[0] rho 0.99999648332596
scalar FogSequentialForward.fog[24].server[0] congestionRatio 0
scalar FogSequentialForward.fog[24].server[0] totalJobs 14040
scalar FogSequentialForward.fog[24].server[0] droppedJobsQueue 768
scalar FogSequentialForward.fog[24].server[0] droppedJobsTimout 0
scalar FogSequentialForward.fog[24].server[0] droppedJobsSLA 8326
scalar FogSequentialForward.fog[24].server[0] droppedJobsTotal 9094
scalar FogSequentialForward.fog[25].dispatcher localJobs 14125
scalar FogSequentialForward.fog[25].dispatcher internalJobs 14610
scalar FogSequentialForward.fog[25].dispatcher externalJobs 3818933
scalar FogSequentialForward.fog[25].dispatcher remoteJobs 3819036
scalar FogSequentialForward.fog[25].dispatcher probeQueries 0
scalar FogSequentialForward.fog[25].dispatcher probeAnswers 0
scalar FogSequentialForward.fog[25].dispatcher droppedJobsSLA 382
scalar FogSequentialForward.fog[25].dispatcher jobs_class_1 3833543
scalar FogSequentialForward.fog[25].dispatcher remoteJobs_class_1 3819036
scalar FogSequentialForward.fog[25].dispatcher localJobs_class_1 14125
scalar FogSequentialForward.fog[25].dispatcher droppedJobsSLA_class_1 382
scalar FogSequentialForward.fog[25].server[0] rho 0.99999666213989
scalar FogSequentialForward.fog[25].server[0] congestionRatio 0
scalar FogSequentialForward.fog[25].server[0] totalJobs 14125
scalar FogSequentialForward.fog[25].server[0] droppedJobsQueue 776
scalar FogSequentialForward.fog[25].server[0] droppedJobsTimout 0
scalar FogSequentialForward.fog[25].server[0] droppedJobsSLA 8464
scalar FogSequentialForward.fog[25].server[0] droppedJobsTotal 9240
scalar FogSequentialForward.fog[26].dispatcher localJobs 14064
scalar FogSequentialForward.fog[26].dispatcher internalJobs 14495
scalar FogSequentialForward.fog[26].dispatcher externalJobs 3818566
scalar FogSequentialForward.fog[26].dispatcher remoteJobs 3818589
scalar FogSequentialForward.fog[26].dispatcher probeQueries 0
scalar FogSequentialForward.fog[26].dispatcher probeAnswers 0
scalar FogSequentialForward.fog[26].dispatcher droppedJobsSLA 408
scalar FogSequentialForward.fog[26].dispatcher jobs_class_1 3833061
scalar FogSequentialForward.fog[26].dispatcher remoteJobs_class_1 3818589
scalar FogSequentialForward.fog[26].dispatcher localJobs_class_1 14064
scalar FogSequentialForward.fog[26].dispatcher droppedJobsSLA_class_1 408
scalar FogSequentialForward.fog[26].server[0] rho 0.99992322921753
scalar FogSequentialForward.fog[26].server[0] congestionRatio 0
scalar FogSequentialForward.fog[26].server[0] totalJobs 14064
scalar FogSequentialForward.fog[26].server[0] droppedJobsQueue 767
scalar FogSequentialForward.fog[26].server[0] droppedJobsTimout 0
scalar FogSequentialForward.fog[26].server[0] droppedJobsSLA 8346
scalar FogSequentialForward.fog[26].server[0] droppedJobsTotal 9113
scalar FogSequentialForward.fog[27].dispatcher localJobs 14038
scalar FogSequentialForward.fog[27].dispatcher internalJobs 14327
scalar FogSequentialForward.fog[27].dispatcher externalJobs 3818231
scalar FogSequentialForward.fog[27].dispatcher remoteJobs 3818153
scalar FogSequentialForward.fog[27].dispatcher probeQueries 0
scalar FogSequentialForward.fog[27].dispatcher probeAnswers 0
scalar FogSequentialForward.fog[27].dispatcher droppedJobsSLA 367
scalar FogSequentialForward.fog[27].dispatcher jobs_class_1 3832558
scalar FogSequentialForward.fog[27].dispatcher remoteJobs_class_1 3818153
scalar FogSequentialForward.fog[27].dispatcher localJobs_class_1 14038
scalar FogSequentialForward.fog[27].dispatcher droppedJobsSLA_class_1 367
scalar FogSequentialForward.fog[27].server[0] rho 0.99999511241913
scalar FogSequentialForward.fog[27].server[0] congestionRatio 0
scalar FogSequentialForward.fog[27].server[0] totalJobs 14038
scalar FogSequentialForward.fog[27].server[0] droppedJobsQueue 774
scalar FogSequentialForward.fog[27].server[0] droppedJobsTimout 0
scalar FogSequentialForward.fog[27].server[0] droppedJobsSLA 8253
scalar FogSequentialForward.fog[27].server[0] droppedJobsTotal 9027
scalar FogSequentialForward.fog[28].dispatcher localJobs 14017
scalar FogSequentialForward.fog[28].dispatcher internalJobs 14529
scalar FogSequentialForward.fog[28].dispatcher externalJobs 3820782
scalar FogSequentialForward.fog[28].dispatcher remoteJobs 3820954
scalar FogSequentialForward.fog[28].dispatcher probeQueries 0
scalar FogSequentialForward.fog[28].dispatcher probeAnswers 0
scalar FogSequentialForward.fog[28].dispatcher droppedJobsSLA 340
scalar FogSequentialForward.fog[28].dispatcher jobs_class_1 3835311
scalar FogSequentialForward.fog[28].dispatcher remoteJobs_class_1 3820954
scalar FogSequentialForward.fog[28].dispatcher localJobs_class_1 14017
scalar FogSequentialForward.fog[28].dispatcher droppedJobsSLA_class_1 340
scalar FogSequentialForward.fog[28].server[0] rho 0.99999552965164
scalar FogSequentialForward.fog[28].server[0] congestionRatio 0
scalar FogSequentialForward.fog[28].server[0] totalJobs 14017
scalar FogSequentialForward.fog[28].server[0] droppedJobsQueue 769
scalar FogSequentialForward.fog[28].server[0] droppedJobsTimout 0
scalar FogSequentialForward.fog[28].server[0] droppedJobsSLA 8258
scalar FogSequentialForward.fog[28].server[0] droppedJobsTotal 9027
scalar FogSequentialForward.fog[29].dispatcher localJobs 14088
scalar FogSequentialForward.fog[29].dispatcher internalJobs 14537
scalar FogSequentialForward.fog[29].dispatcher externalJobs 3817732
scalar FogSequentialForward.fog[29].dispatcher remoteJobs 3817810
scalar FogSequentialForward.fog[29].dispatcher probeQueries 0
scalar FogSequentialForward.fog[29].dispatcher probeAnswers 0
scalar FogSequentialForward.fog[29].dispatcher droppedJobsSLA 371
scalar FogSequentialForward.fog[29].dispatcher jobs_class_1 3832269
scalar FogSequentialForward.fog[29].dispatcher remoteJobs_class_1 3817810
scalar FogSequentialForward.fog[29].dispatcher localJobs_class_1 14088
scalar FogSequentialForward.fog[29].dispatcher droppedJobsSLA_class_1 371
scalar FogSequentialForward.fog[29].server[0] rho 0.99999433755875
scalar FogSequentialForward.fog[29].server[0] congestionRatio 0
scalar FogSequentialForward.fog[29].server[0] totalJobs 14088
scalar FogSequentialForward.fog[29].server[0] droppedJobsQueue 773
scalar FogSequentialForward.fog[29].server[0] droppedJobsTimout 0
scalar FogSequentialForward.fog[29].server[0] droppedJobsSLA 8333
scalar FogSequentialForward.fog[29].server[0] droppedJobsTotal 9106
scalar FogSequentialForward.fog[30].dispatcher localJobs 14079
scalar FogSequentialForward.fog[30].dispatcher internalJobs 14554
scalar FogSequentialForward.fog[30].dispatcher externalJobs 3819372
scalar FogSequentialForward.fog[30].dispatcher remoteJobs 3819486
scalar FogSequentialForward.fog[30].dispatcher probeQueries 0
scalar FogSequentialForward.fog[30].dispatcher probeAnswers 0
scalar FogSequentialForward.fog[30].dispatcher droppedJobsSLA 361
scalar FogSequentialForward.fog[30].dispatcher jobs_class_1 3833926
scalar FogSequentialForward.fog[30].dispatcher remoteJobs_class_1 3819486
scalar FogSequentialForward.fog[30].dispatcher localJobs_class_1 14079
scalar FogSequentialForward.fog[30].dispatcher droppedJobsSLA_class_1 361
scalar FogSequentialForward.fog[30].server[0] rho 0.99999445676804
scalar FogSequentialForward.fog[30].server[0] congestionRatio 0
scalar FogSequentialForward.fog[30].server[0] totalJobs 14079
scalar FogSequentialForward.fog[30].server[0] droppedJobsQueue 770
scalar FogSequentialForward.fog[30].server[0] droppedJobsTimout 0
scalar FogSequentialForward.fog[30].server[0] droppedJobsSLA 8348
scalar FogSequentialForward.fog[30].server[0] droppedJobsTotal 9118
scalar FogSequentialForward.fog[31].dispatcher localJobs 14066
scalar FogSequentialForward.fog[31].dispatcher internalJobs 14428
scalar FogSequentialForward.fog[31].dispatcher externalJobs 3818494
scalar FogSequentialForward.fog[31].dispatcher remoteJobs 3818507
scalar FogSequentialForward.fog[31].dispatcher probeQueries 0
scalar FogSequentialForward.fog[31].dispatcher probeAnswers 0
scalar FogSequentialForward.fog[31].dispatcher droppedJobsSLA 349
scalar FogSequentialForward.fog[31].dispatcher jobs_class_1 3832922
scalar FogSequentialForward.fog[31].dispatcher remoteJobs_class_1 3818507
scalar FogSequentialForward.fog[31].dispatcher localJobs_class_1 14066
scalar FogSequentialForward.fog[31].dispatcher droppedJobsSLA_class_1 349
scalar FogSequentialForward.fog[31].server[0] rho 0.99999564886093
scalar FogSequentialForward.fog[31].server[0] congestionRatio 0
scalar FogSequentialForward.fog[31].server[0] totalJobs 14066
scalar FogSequentialForward.fog[31].server[0] droppedJobsQueue 771
scalar FogSequentialForward.fog[31].server[0] droppedJobsTimout 0
scalar FogSequentialForward.fog[31].server[0] droppedJobsSLA 8354
scalar FogSequentialForward.fog[31].server[0] droppedJobsTotal 9125
scalar FogSequentialForward.fog[32].dispatcher localJobs 14070
scalar FogSequentialForward.fog[32].dispatcher internalJobs 14255
scalar FogSequentialForward.fog[32].dispatcher externalJobs 3817745
scalar FogSequentialForward.fog[32].dispatcher remoteJobs 3817527
scalar FogSequentialForward.fog[32].dispatcher probeQueries 0
scalar FogSequentialForward.fog[32].dispatcher probeAnswers 0
scalar FogSequentialForward.fog[32].dispatcher droppedJobsSLA 403
scalar FogSequentialForward.fog[32].dispatcher jobs_class_1 3832000
scalar FogSequentialForward.fog[32].dispatcher remoteJobs_class_1 3817527
scalar FogSequentialForward.fog[32].dispatcher localJobs_class_1 14070
scalar FogSequentialForward.fog[32].dispatcher droppedJobsSLA_class_1 403
scalar FogSequentialForward.fog[32].server[0] rho 0.9999372959137
scalar FogSequentialForward.fog[32].server[0] congestionRatio 0
scalar FogSequentialForward.fog[32].server[0] totalJobs 14070
scalar FogSequentialForward.fog[32].server[0] droppedJobsQueue 773
scalar FogSequentialForward.fog[32].server[0] droppedJobsTimout 0
scalar FogSequentialForward.fog[32].server[0] droppedJobsSLA 8318
scalar FogSequentialForward.fog[32].server[0] droppedJobsTotal 9091
scalar FogSequentialForward.fog[33].dispatcher localJobs 14115
scalar FogSequentialForward.fog[33].dispatcher internalJobs 14572
scalar FogSequentialForward.fog[33].dispatcher externalJobs 3819777
scalar FogSequentialForward.fog[33].dispatcher remoteJobs 3819905
scalar FogSequentialForward.fog[33].dispatcher probeQueries 0
scalar FogSequentialForward.fog[33].dispatcher probeAnswers 0
scalar FogSequentialForward.fog[33].dispatcher droppedJobsSLA 329
scalar FogSequentialForward.fog[33].dispatcher jobs_class_1 3834349
scalar FogSequentialForward.fog[33].dispatcher remoteJobs_class_1 3819905
scalar FogSequentialForward.fog[33].dispatcher localJobs_class_1 14115
scalar FogSequentialForward.fog[33].dispatcher droppedJobsSLA_class_1 329
scalar FogSequentialForward.fog[33].server[0] rho 0.99999630451202
scalar FogSequentialForward.fog[33].server[0] congestionRatio 0
scalar FogSequentialForward.fog[33].server[0] totalJobs 14115
scalar FogSequentialForward.fog[33].server[0] droppedJobsQueue 775
scalar FogSequentialForward.fog[33].server[0] droppedJobsTimout 0
scalar FogSequentialForward.fog[33].server[0] droppedJobsSLA 8357
scalar FogSequentialForward.fog[33].server[0] droppedJobsTotal 9132
scalar FogSequentialForward.fog[34].dispatcher localJobs 14038
scalar FogSequentialForward.fog[34].dispatcher internalJobs 14253
scalar FogSequentialForward.fog[34].dispatcher externalJobs 3819084
scalar FogSequentialForward.fog[34].dispatcher remoteJobs 3818928
scalar FogSequentialForward.fog[34].dispatcher probeQueries 0
scalar FogSequentialForward.fog[34].dispatcher probeAnswers 0
scalar FogSequentialForward.fog[34].dispatcher droppedJobsSLA 371
scalar FogSequentialForward.fog[34].dispatcher jobs_class_1 3833337
scalar FogSequentialForward.fog[34].dispatcher remoteJobs_class_1 3818928
scalar FogSequentialForward.fog[34].dispatcher localJobs_class_1 14038
scalar FogSequentialForward.fog[34].dispatcher droppedJobsSLA_class_1 371
scalar FogSequentialForward.fog[34].server[0] rho 0.99999570846558
scalar FogSequentialForward.fog[34].server[0] congestionRatio 0
scalar FogSequentialForward.fog[34].server[0] totalJobs 14038
scalar FogSequentialForward.fog[34].server[0] droppedJobsQueue 768
scalar FogSequentialForward.fog[34].server[0] droppedJobsTimout 0
scalar FogSequentialForward.fog[34].server[0] droppedJobsSLA 8361
scalar FogSequentialForward.fog[34].server[0] droppedJobsTotal 9129
scalar FogSequentialForward.fog[35].dispatcher localJobs 14087
scalar FogSequentialForward.fog[35].dispatcher internalJobs 14474
scalar FogSequentialForward.fog[35].dispatcher externalJobs 3817107
scalar FogSequentialForward.fog[35].dispatcher remoteJobs 3817125
scalar FogSequentialForward.fog[35].dispatcher probeQueries 0
scalar FogSequentialForward.fog[35].dispatcher probeAnswers 0
scalar FogSequentialForward.fog[35].dispatcher droppedJobsSLA 369
scalar FogSequentialForward.fog[35].dispatcher jobs_class_1 3831581
scalar FogSequentialForward.fog[35].dispatcher remoteJobs_class_1 3817125
scalar FogSequentialForward.fog[35].dispatcher localJobs_class_1 14087
scalar FogSequentialForward.fog[35].dispatcher droppedJobsSLA_class_1 369
scalar FogSequentialForward.fog[35].server[0] rho 0.99999517202377
scalar FogSequentialForward.fog[35].server[0] congestionRatio 0
scalar FogSequentialForward.fog[35].server[0] totalJobs 14087
scalar FogSequentialForward.fog[35].server[0] droppedJobsQueue 770
scalar FogSequentialForward.fog[35].server[0] droppedJobsTimout 0
scalar FogSequentialForward.fog[35].server[0] droppedJobsSLA 8367
scalar FogSequentialForward.fog[35].server[0] droppedJobsTotal 9137
scalar FogSequentialForward.fog[36].dispatcher localJobs 14057
scalar FogSequentialForward.fog[36].dispatcher internalJobs 14572
scalar FogSequentialForward.fog[36].dispatcher externalJobs 3820125
scalar FogSequentialForward.fog[36].dispatcher remoteJobs 3820278
scalar FogSequentialForward.fog[36].dispatcher probeQueries 0
scalar FogSequentialForward.fog[36].dispatcher probeAnswers 0
scalar FogSequentialForward.fog[36].dispatcher droppedJobsSLA 362
scalar FogSequentialForward.fog[36].dispatcher jobs_class_1 3834697
scalar FogSequentialForward.fog[36].dispatcher remoteJobs_class_1 3820278
scalar FogSequentialForward.fog[36].dispatcher localJobs_class_1 14057
scalar FogSequentialForward.fog[36].dispatcher droppedJobsSLA_class_1 362
scalar FogSequentialForward.fog[36].server[0] rho 0.99999707937241
scalar FogSequentialForward.fog[36].server[0] congestionRatio 0
scalar FogSequentialForward.fog[36].server[0] totalJobs 14057
scalar FogSequentialForward.fog[36].server[0] droppedJobsQueue 771
scalar FogSequentialForward.fog[36].server[0] droppedJobsTimout 0
scalar FogSequentialForward.fog[36].server[0] droppedJobsSLA 8349
scalar FogSequentialForward.fog[36].server[0] droppedJobsTotal 9120
scalar FogSequentialForward.fog[37].dispatcher localJobs 14041
scalar FogSequentialForward.fog[37].dispatcher internalJobs 14278
scalar FogSequentialForward.fog[37].dispatcher externalJobs 3816970
scalar FogSequentialForward.fog[37].dispatcher remoteJobs 3816819
scalar FogSequentialForward.fog[37].dispatcher probeQueries 0
scalar FogSequentialForward.fog[37].dispatcher probeAnswers 0
scalar FogSequentialForward.fog[37].dispatcher droppedJobsSLA 388
scalar FogSequentialForward.fog[37].dispatcher jobs_class_1 3831248
scalar FogSequentialForward.fog[37].dispatcher remoteJobs_class_1 3816819
scalar FogSequentialForward.fog[37].dispatcher localJobs_class_1 14041
scalar FogSequentialForward.fog[37].dispatcher droppedJobsSLA_class_1 388
scalar FogSequentialForward.fog[37].server[0] rho 0.99999618530273
scalar FogSequentialForward.fog[37].server[0] congestionRatio 0
scalar FogSequentialForward.fog[37].server[0] totalJobs 14041
scalar FogSequentialForward.fog[37].server[0] droppedJobsQueue 765
scalar FogSequentialForward.fog[37].server[0] droppedJobsTimout 0
scalar FogSequentialForward.fog[37].server[0] droppedJobsSLA 8324
scalar FogSequentialForward.fog[37].server[0] droppedJobsTotal 9089
scalar FogSequentialForward.fog[38].dispatcher localJobs 14071
scalar FogSequentialForward.fog[38].dispatcher internalJobs 14521
scalar FogSequentialForward.fog[38].dispatcher externalJobs 3819149
scalar FogSequentialForward.fog[38].dispatcher remoteJobs 3819252
scalar FogSequentialForward.fog[38].dispatcher probeQueries 0
scalar FogSequentialForward.fog[38].dispatcher probeAnswers 0
scalar FogSequentialForward.fog[38].dispatcher droppedJobsSLA 347
scalar FogSequentialForward.fog[38].dispatcher jobs_class_1 3833670
scalar FogSequentialForward.fog[38].dispatcher remoteJobs_class_1 3819252
scalar FogSequentialForward.fog[38].dispatcher localJobs_class_1 14071
scalar FogSequentialForward.fog[38].dispatcher droppedJobsSLA_class_1 347
scalar FogSequentialForward.fog[38].server[0] rho 0.99981784820557
scalar FogSequentialForward.fog[38].server[0] congestionRatio 0
scalar FogSequentialForward.fog[38].server[0] totalJobs 14071
scalar FogSequentialForward.fog[38].server[0] droppedJobsQueue 773
scalar FogSequentialForward.fog[38].server[0] droppedJobsTimout 0
scalar FogSequentialForward.fog[38].server[0] droppedJobsSLA 8351
scalar FogSequentialForward.fog[38].server[0] droppedJobsTotal 9124
scalar FogSequentialForward.fog[39].dispatcher localJobs 14026
scalar FogSequentialForward.fog[39].dispatcher internalJobs 14528
scalar FogSequentialForward.fog[39].dispatcher externalJobs 3816946
scalar FogSequentialForward.fog[39].dispatcher remoteJobs 3817097
scalar FogSequentialForward.fog[39].dispatcher probeQueries 0
scalar FogSequentialForward.fog[39].dispatcher probeAnswers 0
scalar FogSequentialForward.fog[39].dispatcher droppedJobsSLA 351
scalar FogSequentialForward.fog[39].dispatcher jobs_class_1 3831474
scalar FogSequentialForward.fog[39].dispatcher remoteJobs_class_1 3817097
scalar FogSequentialForward.fog[39].dispatcher localJobs_class_1 14026
scalar FogSequentialForward.fog[39].dispatcher droppedJobsSLA_class_1 351
scalar FogSequentialForward.fog[39].server[0] rho 0.99999642372131
scalar FogSequentialForward.fog[39].server[0] congestionRatio 0
scalar FogSequentialForward.fog[39].server[0] totalJobs 14026
scalar FogSequentialForward.fog[39].server[0] droppedJobsQueue 772
scalar FogSequentialForward.fog[39].server[0] droppedJobsTimout 0
scalar FogSequentialForward.fog[39].server[0] droppedJobsSLA 8297
scalar FogSequentialForward.fog[39].server[0] droppedJobsTotal 9069
scalar FogSequentialForward.fog[40].dispatcher localJobs 14019
scalar FogSequentialForward.fog[40].dispatcher internalJobs 14429
scalar FogSequentialForward.fog[40].dispatcher externalJobs 3817371
scalar FogSequentialForward.fog[40].dispatcher remoteJobs 3817428
scalar FogSequentialForward.fog[40].dispatcher probeQueries 0
scalar FogSequentialForward.fog[40].dispatcher probeAnswers 0
scalar FogSequentialForward.fog[40].dispatcher droppedJobsSLA 353
scalar FogSequentialForward.fog[40].dispatcher jobs_class_1 3831800
scalar FogSequentialForward.fog[40].dispatcher remoteJobs_class_1 3817428
scalar FogSequentialForward.fog[40].dispatcher localJobs_class_1 14019
scalar FogSequentialForward.fog[40].dispatcher droppedJobsSLA_class_1 353
scalar FogSequentialForward.fog[40].server[0] rho 0.99999582767487
scalar FogSequentialForward.fog[40].server[0] congestionRatio 0
scalar FogSequentialForward.fog[40].server[0] totalJobs 14019
scalar FogSequentialForward.fog[40].server[0] droppedJobsQueue 768
scalar FogSequentialForward.fog[40].server[0] droppedJobsTimout 0
scalar FogSequentialForward.fog[40].server[0] droppedJobsSLA 8293
scalar FogSequentialForward.fog[40].server[0] droppedJobsTotal 9061
scalar FogSequentialForward.fog[41].dispatcher localJobs 14134
scalar FogSequentialForward.fog[41].dispatcher internalJobs 14332
scalar FogSequentialForward.fog[41].dispatcher externalJobs 3821234
scalar FogSequentialForward.fog[41].dispatcher remoteJobs 3821070
scalar FogSequentialForward.fog[41].dispatcher probeQueries 0
scalar FogSequentialForward.fog[41].dispatcher probeAnswers 0
scalar FogSequentialForward.fog[41].dispatcher droppedJobsSLA 362
scalar FogSequentialForward.fog[41].dispatcher jobs_class_1 3835566
scalar FogSequentialForward.fog[41].dispatcher remoteJobs_class_1 3821070
scalar FogSequentialForward.fog[41].dispatcher localJobs_class_1 14134
scalar FogSequentialForward.fog[41].dispatcher droppedJobsSLA_class_1 362
scalar FogSequentialForward.fog[41].server[0] rho 0.9999965429306
scalar FogSequentialForward.fog[41].server[0] congestionRatio 0
scalar FogSequentialForward.fog[41].server[0] totalJobs 14134
scalar FogSequentialForward.fog[41].server[0] droppedJobsQueue 773
scalar FogSequentialForward.fog[41].server[0] droppedJobsTimout 0
scalar FogSequentialForward.fog[41].server[0] droppedJobsSLA 8379
scalar FogSequentialForward.fog[41].server[0] droppedJobsTotal 9152
scalar FogSequentialForward.fog[42].dispatcher localJobs 14090
scalar FogSequentialForward.fog[42].dispatcher internalJobs 14308
scalar FogSequentialForward.fog[42].dispatcher externalJobs 3818476
scalar FogSequentialForward.fog[42].dispatcher remoteJobs 3818363
scalar FogSequentialForward.fog[42].dispatcher probeQueries 0
scalar FogSequentialForward.fog[42].dispatcher probeAnswers 0
scalar FogSequentialForward.fog[42].dispatcher droppedJobsSLA 331
scalar FogSequentialForward.fog[42].dispatcher jobs_class_1 3832784
scalar FogSequentialForward.fog[42].dispatcher remoteJobs_class_1 3818363
scalar FogSequentialForward.fog[42].dispatcher localJobs_class_1 14090
scalar FogSequentialForward.fog[42].dispatcher droppedJobsSLA_class_1 331
scalar FogSequentialForward.fog[42].server[0] rho 0.99999552965164
scalar FogSequentialForward.fog[42].server[0] congestionRatio 0
scalar FogSequentialForward.fog[42].server[0] totalJobs 14090
scalar FogSequentialForward.fog[42].server[0] droppedJobsQueue 771
scalar FogSequentialForward.fog[42].server[0] droppedJobsTimout 0
scalar FogSequentialForward.fog[42].server[0] droppedJobsSLA 8322
scalar FogSequentialForward.fog[42].server[0] droppedJobsTotal 9093
scalar FogSequentialForward.fog[43].dispatcher localJobs 14075
scalar FogSequentialForward.fog[43].dispatcher internalJobs 14456
scalar FogSequentialForward.fog[43].dispatcher externalJobs 3821044
scalar FogSequentialForward.fog[43].dispatcher remoteJobs 3821059
scalar FogSequentialForward.fog[43].dispatcher probeQueries 0
scalar FogSequentialForward.fog[43].dispatcher probeAnswers 0
scalar FogSequentialForward.fog[43].dispatcher droppedJobsSLA 366
scalar FogSequentialForward.fog[43].dispatcher jobs_class_1 3835500
scalar FogSequentialForward.fog[43].dispatcher remoteJobs_class_1 3821059
scalar FogSequentialForward.fog[43].dispatcher localJobs_class_1 14075
scalar FogSequentialForward.fog[43].dispatcher droppedJobsSLA_class_1 366
scalar FogSequentialForward.fog[43].server[0] rho 0.9999902844429
scalar FogSequentialForward.fog[43].server[0] congestionRatio 0
scalar FogSequentialForward.fog[43].server[0] totalJobs 14075
scalar FogSequentialForward.fog[43].server[0] droppedJobsQueue 767
scalar FogSequentialForward.fog[43].server[0] droppedJobsTimout 0
scalar FogSequentialForward.fog[43].server[0] droppedJobsSLA 8318
scalar FogSequentialForward.fog[43].server[0] droppedJobsTotal 9085
scalar FogSequentialForward.fog[44].dispatcher localJobs 14000
scalar FogSequentialForward.fog[44].dispatcher internalJobs 14554
scalar FogSequentialForward.fog[44].dispatcher externalJobs 3816364
scalar FogSequentialForward.fog[44].dispatcher remoteJobs 3816548
scalar FogSequentialForward.fog[44].dispatcher probeQueries 0
scalar FogSequentialForward.fog[44].dispatcher probeAnswers 0
scalar FogSequentialForward.fog[44].dispatcher droppedJobsSLA 370
scalar FogSequentialForward.fog[44].dispatcher jobs_class_1 3830918
scalar FogSequentialForward.fog[44].dispatcher remoteJobs_class_1 3816548
scalar FogSequentialForward.fog[44].dispatcher localJobs_class_1 14000
scalar FogSequentialForward.fog[44].dispatcher droppedJobsSLA_class_1 370
scalar FogSequentialForward.fog[44].server[0] rho 0.99999582767487
scalar FogSequentialForward.fog[44].server[0] congestionRatio 0
scalar FogSequentialForward.fog[44].server[0] totalJobs 14000
scalar FogSequentialForward.fog[44].server[0] droppedJobsQueue 769
scalar FogSequentialForward.fog[44].server[0] droppedJobsTimout 0
scalar FogSequentialForward.fog[44].server[0] droppedJobsSLA 8309
scalar FogSequentialForward.fog[44].server[0] droppedJobsTotal 9078
scalar FogSequentialForward.fog[45].dispatcher localJobs 14040
scalar FogSequentialForward.fog[45].dispatcher internalJobs 14345
scalar FogSequentialForward.fog[45].dispatcher externalJobs 3819654
scalar FogSequentialForward.fog[45].dispatcher remoteJobs 3819574
scalar FogSequentialForward.fog[45].dispatcher probeQueries 0
scalar FogSequentialForward.fog[45].dispatcher probeAnswers 0
scalar FogSequentialForward.fog[45].dispatcher droppedJobsSLA 385
scalar FogSequentialForward.fog[45].dispatcher jobs_class_1 3833999
scalar FogSequentialForward.fog[45].dispatcher remoteJobs_class_1 3819574
scalar FogSequentialForward.fog[45].dispatcher localJobs_class_1 14040
scalar FogSequentialForward.fog[45].dispatcher droppedJobsSLA_class_1 385
scalar FogSequentialForward.fog[45].server[0] rho 0.99999511241913
scalar FogSequentialForward.fog[45].server[0] congestionRatio 0
scalar FogSequentialForward.fog[45].server[0] totalJobs 14040
scalar FogSequentialForward.fog[45].server[0] droppedJobsQueue 771
scalar FogSequentialForward.fog[45].server[0] droppedJobsTimout 0
scalar FogSequentialForward.fog[45].server[0] droppedJobsSLA 8285
scalar FogSequentialForward.fog[45].server[0] droppedJobsTotal 9056
scalar FogSequentialForward.fog[46].dispatcher localJobs 14117
scalar FogSequentialForward.fog[46].dispatcher internalJobs 14362
scalar FogSequentialForward.fog[46].dispatcher externalJobs 3821974
scalar FogSequentialForward.fog[46].dispatcher remoteJobs 3821845
scalar FogSequentialForward.fog[46].dispatcher probeQueries 0
scalar FogSequentialForward.fog[46].dispatcher probeAnswers 0
scalar FogSequentialForward.fog[46].dispatcher droppedJobsSLA 374
scalar FogSequentialForward.fog[46].dispatcher jobs_class_1 3836336
scalar FogSequentialForward.fog[46].dispatcher remoteJobs_class_1 3821845
scalar FogSequentialForward.fog[46].dispatcher localJobs_class_1 14117
scalar FogSequentialForward.fog[46].dispatcher droppedJobsSLA_class_1 374
scalar FogSequentialForward.fog[46].server[0] rho 0.99999737739563
scalar FogSequentialForward.fog[46].server[0] congestionRatio 0
scalar FogSequentialForward.fog[46].server[0] totalJobs 14117
scalar FogSequentialForward.fog[46].server[0] droppedJobsQueue 776
scalar FogSequentialForward.fog[46].server[0] droppedJobsTimout 0
scalar FogSequentialForward.fog[46].server[0] droppedJobsSLA 8360
scalar FogSequentialForward.fog[46].server[0] droppedJobsTotal 9136
scalar FogSequentialForward.fog[47].dispatcher localJobs 14053
scalar FogSequentialForward.fog[47].dispatcher internalJobs 14579
scalar FogSequentialForward.fog[47].dispatcher externalJobs 3821070
scalar FogSequentialForward.fog[47].dispatcher remoteJobs 3821243
scalar FogSequentialForward.fog[47].dispatcher probeQueries 0
scalar FogSequentialForward.fog[47].dispatcher probeAnswers 0
scalar FogSequentialForward.fog[47].dispatcher droppedJobsSLA 353
scalar FogSequentialForward.fog[47].dispatcher jobs_class_1 3835649
scalar FogSequentialForward.fog[47].dispatcher remoteJobs_class_1 3821243
scalar FogSequentialForward.fog[47].dispatcher localJobs_class_1 14053
scalar FogSequentialForward.fog[47].dispatcher droppedJobsSLA_class_1 353
scalar FogSequentialForward.fog[47].server[0] rho 0.9999965429306
scalar FogSequentialForward.fog[47].server[0] congestionRatio 0
scalar FogSequentialForward.fog[47].server[0] totalJobs 14053
scalar FogSequentialForward.fog[47].server[0] droppedJobsQueue 769
scalar FogSequentialForward.fog[47].server[0] droppedJobsTimout 0
scalar FogSequentialForward.fog[47].server[0] droppedJobsSLA 8346
scalar FogSequentialForward.fog[47].server[0] droppedJobsTotal 9115
scalar FogSequentialForward.fog[48].dispatcher localJobs 14044
scalar FogSequentialForward.fog[48].dispatcher internalJobs 14402
scalar FogSequentialForward.fog[48].dispatcher externalJobs 3818643
scalar FogSequentialForward.fog[48].dispatcher remoteJobs 3818634
scalar FogSequentialForward.fog[48].dispatcher probeQueries 0
scalar FogSequentialForward.fog[48].dispatcher probeAnswers 0
scalar FogSequentialForward.fog[48].dispatcher droppedJobsSLA 367
scalar FogSequentialForward.fog[48].dispatcher jobs_class_1 3833045
scalar FogSequentialForward.fog[48].dispatcher remoteJobs_class_1 3818634
scalar FogSequentialForward.fog[48].dispatcher localJobs_class_1 14044
scalar FogSequentialForward.fog[48].dispatcher droppedJobsSLA_class_1 367
scalar FogSequentialForward.fog[48].server[0] rho 0.99999523162842
scalar FogSequentialForward.fog[48].server[0] congestionRatio 0
scalar FogSequentialForward.fog[48].server[0] totalJobs 14044
scalar FogSequentialForward.fog[48].server[0] droppedJobsQueue 771
scalar FogSequentialForward.fog[48].server[0] droppedJobsTimout 0
scalar FogSequentialForward.fog[48].server[0] droppedJobsSLA 8317
scalar FogSequentialForward.fog[48].server[0] droppedJobsTotal 9088
scalar FogSequentialForward.fog[49].dispatcher localJobs 14097
scalar FogSequentialForward.fog[49].dispatcher internalJobs 14296
scalar FogSequentialForward.fog[49].dispatcher externalJobs 3821569
scalar FogSequentialForward.fog[49].dispatcher remoteJobs 3821398
scalar FogSequentialForward.fog[49].dispatcher probeQueries 0
scalar FogSequentialForward.fog[49].dispatcher probeAnswers 0
scalar FogSequentialForward.fog[49].dispatcher droppedJobsSLA 370
scalar FogSequentialForward.fog[49].dispatcher jobs_class_1 3835865
scalar FogSequentialForward.fog[49].dispatcher remoteJobs_class_1 3821398
scalar FogSequentialForward.fog[49].dispatcher localJobs_class_1 14097
scalar FogSequentialForward.fog[49].dispatcher droppedJobsSLA_class_1 370
scalar FogSequentialForward.fog[49].server[0] rho 0.99997174739838
scalar FogSequentialForward.fog[49].server[0] congestionRatio 0
scalar FogSequentialForward.fog[49].server[0] totalJobs 14097
scalar FogSequentialForward.fog[49].server[0] droppedJobsQueue 772
scalar FogSequentialForward.fog[49].server[0] droppedJobsTimout 0
scalar FogSequentialForward.fog[49].server[0] droppedJobsSLA 8351
scalar FogSequentialForward.fog[49].server[0] droppedJobsTotal 9123
scalar FogSequentialForward.fog[50].dispatcher localJobs 14020
scalar FogSequentialForward.fog[50].dispatcher internalJobs 14559
scalar FogSequentialForward.fog[50].dispatcher externalJobs 3814866
scalar FogSequentialForward.fog[50].dispatcher remoteJobs 3815048
scalar FogSequentialForward.fog[50].dispatcher probeQueries 0
scalar FogSequentialForward.fog[50].dispatcher probeAnswers 0
scalar FogSequentialForward.fog[50].dispatcher droppedJobsSLA 357
scalar FogSequentialForward.fog[50].dispatcher jobs_class_1 3829425
scalar FogSequentialForward.fog[50].dispatcher remoteJobs_class_1 3815048
scalar FogSequentialForward.fog[50].dispatcher localJobs_class_1 14020
scalar FogSequentialForward.fog[50].dispatcher droppedJobsSLA_class_1 357
scalar FogSequentialForward.fog[50].server[0] rho 0.99999493360519
scalar FogSequentialForward.fog[50].server[0] congestionRatio 0
scalar FogSequentialForward.fog[50].server[0] totalJobs 14020
scalar FogSequentialForward.fog[50].server[0] droppedJobsQueue 769
scalar FogSequentialForward.fog[50].server[0] droppedJobsTimout 0
scalar FogSequentialForward.fog[50].server[0] droppedJobsSLA 8312
scalar FogSequentialForward.fog[50].server[0] droppedJobsTotal 9081
scalar FogSequentialForward.fog[51].dispatcher localJobs 13993
scalar FogSequentialForward.fog[51].dispatcher internalJobs 14566
scalar FogSequentialForward.fog[51].dispatcher externalJobs 3824378
scalar FogSequentialForward.fog[51].dispatcher remoteJobs 3824625
scalar FogSequentialForward.fog[51].dispatcher probeQueries 0
scalar FogSequentialForward.fog[51].dispatcher probeAnswers 0
scalar FogSequentialForward.fog[51].dispatcher droppedJobsSLA 326
scalar FogSequentialForward.fog[51].dispatcher jobs_class_1 3838944
scalar FogSequentialForward.fog[51].dispatcher remoteJobs_class_1 3824625
scalar FogSequentialForward.fog[51].dispatcher localJobs_class_1 13993
scalar FogSequentialForward.fog[51].dispatcher droppedJobsSLA_class_1 326
scalar FogSequentialForward.fog[51].server[0] rho 0.99999856948853
scalar FogSequentialForward.fog[51].server[0] congestionRatio 0
scalar FogSequentialForward.fog[51].server[0] totalJobs 13993
scalar FogSequentialForward.fog[51].server[0] droppedJobsQueue 766
scalar FogSequentialForward.fog[51].server[0] droppedJobsTimout 0
scalar FogSequentialForward.fog[51].server[0] droppedJobsSLA 8288
scalar FogSequentialForward.fog[51].server[0] droppedJobsTotal 9054
scalar FogSequentialForward.fog[52].dispatcher localJobs 14037
scalar FogSequentialForward.fog[52].dispatcher internalJobs 14466
scalar FogSequentialForward.fog[52].dispatcher externalJobs 3819826
scalar FogSequentialForward.fog[52].dispatcher remoteJobs 3819917
scalar FogSequentialForward.fog[52].dispatcher probeQueries 0
scalar FogSequentialForward.fog[52].dispatcher probeAnswers 0
scalar FogSequentialForward.fog[52].dispatcher droppedJobsSLA 338
scalar FogSequentialForward.fog[52].dispatcher jobs_class_1 3834292
scalar FogSequentialForward.fog[52].dispatcher remoteJobs_class_1 3819917
scalar FogSequentialForward.fog[52].dispatcher localJobs_class_1 14037
scalar FogSequentialForward.fog[52].dispatcher droppedJobsSLA_class_1 338
scalar FogSequentialForward.fog[52].server[0] rho 0.99999451637268
scalar FogSequentialForward.fog[52].server[0] congestionRatio 0
scalar FogSequentialForward.fog[52].server[0] totalJobs 14037
scalar FogSequentialForward.fog[52].server[0] droppedJobsQueue 769
scalar FogSequentialForward.fog[52].server[0] droppedJobsTimout 0
scalar FogSequentialForward.fog[52].server[0] droppedJobsSLA 8385
scalar FogSequentialForward.fog[52].server[0] droppedJobsTotal 9154
scalar FogSequentialForward.fog[53].dispatcher localJobs 14070
scalar FogSequentialForward.fog[53].dispatcher internalJobs 14758
scalar FogSequentialForward.fog[53].dispatcher externalJobs 3820618
scalar FogSequentialForward.fog[53].dispatcher remoteJobs 3820982
scalar FogSequentialForward.fog[53].dispatcher probeQueries 0
scalar FogSequentialForward.fog[53].dispatcher probeAnswers 0
scalar FogSequentialForward.fog[53].dispatcher droppedJobsSLA 324
scalar FogSequentialForward.fog[53].dispatcher jobs_class_1 3835376
scalar FogSequentialForward.fog[53].dispatcher remoteJobs_class_1 3820982
scalar FogSequentialForward.fog[53].dispatcher localJobs_class_1 14070
scalar FogSequentialForward.fog[53].dispatcher droppedJobsSLA_class_1 324
scalar FogSequentialForward.fog[53].server[0] rho 0.99999678134918
scalar FogSequentialForward.fog[53].server[0] congestionRatio 0
scalar FogSequentialForward.fog[53].server[0] totalJobs 14070
scalar FogSequentialForward.fog[53].server[0] droppedJobsQueue 773
scalar FogSequentialForward.fog[53].server[0] droppedJobsTimout 0
scalar FogSequentialForward.fog[53].server[0] droppedJobsSLA 8325
scalar FogSequentialForward.fog[53].server[0] droppedJobsTotal 9098
scalar FogSequentialForward.fog[54].dispatcher localJobs 14053
scalar FogSequentialForward.fog[54].dispatcher internalJobs 14567
scalar FogSequentialForward.fog[54].dispatcher externalJobs 3816122
scalar FogSequentialForward.fog[54].dispatcher remoteJobs 3816271
scalar FogSequentialForward.fog[54].dispatcher probeQueries 0
scalar FogSequentialForward.fog[54].dispatcher probeAnswers 0
scalar FogSequentialForward.fog[54].dispatcher droppedJobsSLA 365
scalar FogSequentialForward.fog[54].dispatcher jobs_class_1 3830689
scalar FogSequentialForward.fog[54].dispatcher remoteJobs_class_1 3816271
scalar FogSequentialForward.fog[54].dispatcher localJobs_class_1 14053
scalar FogSequentialForward.fog[54].dispatcher droppedJobsSLA_class_1 365
scalar FogSequentialForward.fog[54].server[0] rho 0.99999749660492
scalar FogSequentialForward.fog[54].server[0] congestionRatio 0
scalar FogSequentialForward.fog[54].server[0] totalJobs 14053
scalar FogSequentialForward.fog[54].server[0] droppedJobsQueue 772
scalar FogSequentialForward.fog[54].server[0] droppedJobsTimout 0
scalar FogSequentialForward.fog[54].server[0] droppedJobsSLA 8320
scalar FogSequentialForward.fog[54].server[0] droppedJobsTotal 9092
scalar FogSequentialForward.fog[55].dispatcher localJobs 14080
scalar FogSequentialForward.fog[55].dispatcher internalJobs 14349
scalar FogSequentialForward.fog[55].dispatcher externalJobs 3816529
scalar FogSequentialForward.fog[55].dispatcher remoteJobs 3816382
scalar FogSequentialForward.fog[55].dispatcher probeQueries 0
scalar FogSequentialForward.fog[55].dispatcher probeAnswers 0
scalar FogSequentialForward.fog[55].dispatcher droppedJobsSLA 416
scalar FogSequentialForward.fog[55].dispatcher jobs_class_1 3830878
scalar FogSequentialForward.fog[55].dispatcher remoteJobs_class_1 3816382
scalar FogSequentialForward.fog[55].dispatcher localJobs_class_1 14080
scalar FogSequentialForward.fog[55].dispatcher droppedJobsSLA_class_1 416
scalar FogSequentialForward.fog[55].server[0] rho 0.99999463558197
scalar FogSequentialForward.fog[55].server[0] congestionRatio 0
scalar FogSequentialForward.fog[55].server[0] totalJobs 14080
scalar FogSequentialForward.fog[55].server[0] droppedJobsQueue 774
scalar FogSequentialForward.fog[55].server[0] droppedJobsTimout 0
scalar FogSequentialForward.fog[55].server[0] droppedJobsSLA 8365
scalar FogSequentialForward.fog[55].server[0] droppedJobsTotal 9139
scalar FogSequentialForward.fog[56].dispatcher localJobs 14065
scalar FogSequentialForward.fog[56].dispatcher internalJobs 14460
scalar FogSequentialForward.fog[56].dispatcher externalJobs 3820486
scalar FogSequentialForward.fog[56].dispatcher remoteJobs 3820514
scalar FogSequentialForward.fog[56].dispatcher probeQueries 0
scalar FogSequentialForward.fog[56].dispatcher probeAnswers 0
scalar FogSequentialForward.fog[56].dispatcher droppedJobsSLA 367
scalar FogSequentialForward.fog[56].dispatcher jobs_class_1 3834946
scalar FogSequentialForward.fog[56].dispatcher remoteJobs_class_1 3820514
scalar FogSequentialForward.fog[56].dispatcher localJobs_class_1 14065
scalar FogSequentialForward.fog[56].dispatcher droppedJobsSLA_class_1 367
scalar FogSequentialForward.fog[56].server[0] rho 0.99999737739563
scalar FogSequentialForward.fog[56].server[0] congestionRatio 0
scalar FogSequentialForward.fog[56].server[0] totalJobs 14065
scalar FogSequentialForward.fog[56].server[0] droppedJobsQueue 770
scalar FogSequentialForward.fog[56].server[0] droppedJobsTimout 0
scalar FogSequentialForward.fog[56].server[0] droppedJobsSLA 8334
scalar FogSequentialForward.fog[56].server[0] droppedJobsTotal 9104
scalar FogSequentialForward.fog[57].dispatcher localJobs 14031
scalar FogSequentialForward.fog[57].dispatcher internalJobs 14607
scalar FogSequentialForward.fog[57].dispatcher externalJobs 3819005
scalar FogSequentialForward.fog[57].dispatcher remoteJobs 3819216
scalar FogSequentialForward.fog[57].dispatcher probeQueries 0
scalar FogSequentialForward.fog[57].dispatcher probeAnswers 0
scalar FogSequentialForward.fog[57].dispatcher droppedJobsSLA 365
scalar FogSequentialForward.fog[57].dispatcher jobs_class_1 3833612
scalar FogSequentialForward.fog[57].dispatcher remoteJobs_class_1 3819216
scalar FogSequentialForward.fog[57].dispatcher localJobs_class_1 14031
scalar FogSequentialForward.fog[57].dispatcher droppedJobsSLA_class_1 365
scalar FogSequentialForward.fog[57].server[0] rho 0.99999761581421
scalar FogSequentialForward.fog[57].server[0] congestionRatio 0
scalar FogSequentialForward.fog[57].server[0] totalJobs 14031
scalar FogSequentialForward.fog[57].server[0] droppedJobsQueue 774
scalar FogSequentialForward.fog[57].server[0] droppedJobsTimout 0
scalar FogSequentialForward.fog[57].server[0] droppedJobsSLA 8297
scalar FogSequentialForward.fog[57].server[0] droppedJobsTotal 9071
scalar FogSequentialForward.fog[58].dispatcher localJobs 14064
scalar FogSequentialForward.fog[58].dispatcher internalJobs 14288
scalar FogSequentialForward.fog[58].dispatcher externalJobs 3821622
scalar FogSequentialForward.fog[58].dispatcher remoteJobs 3821484
scalar FogSequentialForward.fog[58].dispatcher probeQueries 0
scalar FogSequentialForward.fog[58].dispatcher probeAnswers 0
scalar FogSequentialForward.fog[58].dispatcher droppedJobsSLA 362
scalar FogSequentialForward.fog[58].dispatcher jobs_class_1 3835910
scalar FogSequentialForward.fog[58].dispatcher remoteJobs_class_1 3821484
scalar FogSequentialForward.fog[58].dispatcher localJobs_class_1 14064
scalar FogSequentialForward.fog[58].dispatcher droppedJobsSLA_class_1 362
scalar FogSequentialForward.fog[58].server[0] rho 0.99989813566208
scalar FogSequentialForward.fog[58].server[0] congestionRatio 0
scalar FogSequentialForward.fog[58].server[0] totalJobs 14064
scalar FogSequentialForward.fog[58].server[0] droppedJobsQueue 773
scalar FogSequentialForward.fog[58].server[0] droppedJobsTimout 0
scalar FogSequentialForward.fog[58].server[0] droppedJobsSLA 8276
scalar FogSequentialForward.fog[58].server[0] droppedJobsTotal 9049
scalar FogSequentialForward.fog[59].dispatcher localJobs 14073
scalar FogSequentialForward.fog[59].dispatcher internalJobs 14318
scalar FogSequentialForward.fog[59].dispatcher externalJobs 3817143
scalar FogSequentialForward.fog[59].dispatcher remoteJobs 3817004
scalar FogSequentialForward.fog[59].dispatcher probeQueries 0
scalar FogSequentialForward.fog[59].dispatcher probeAnswers 0
scalar FogSequentialForward.fog[59].dispatcher droppedJobsSLA 384
scalar FogSequentialForward.fog[59].dispatcher jobs_class_1 3831461
scalar FogSequentialForward.fog[59].dispatcher remoteJobs_class_1 3817004
scalar FogSequentialForward.fog[59].dispatcher localJobs_class_1 14073
scalar FogSequentialForward.fog[59].dispatcher droppedJobsSLA_class_1 384
scalar FogSequentialForward.fog[59].server[0] rho 0.99999642372131
scalar FogSequentialForward.fog[59].server[0] congestionRatio 0
scalar FogSequentialForward.fog[59].server[0] totalJobs 14073
scalar FogSequentialForward.fog[59].server[0] droppedJobsQueue 775
scalar FogSequentialForward.fog[59].server[0] droppedJobsTimout 0
scalar FogSequentialForward.fog[59].server[0] droppedJobsSLA 8335
scalar FogSequentialForward.fog[59].server[0] droppedJobsTotal 9110
scalar FogSequentialForward.fog[60].dispatcher localJobs 14029
scalar FogSequentialForward.fog[60].dispatcher internalJobs 14385
scalar FogSequentialForward.fog[60].dispatcher externalJobs 3816134
scalar FogSequentialForward.fog[60].dispatcher remoteJobs 3816121
scalar FogSequentialForward.fog[60].dispatcher probeQueries 0
scalar FogSequentialForward.fog[60].dispatcher probeAnswers 0
scalar FogSequentialForward.fog[60].dispatcher droppedJobsSLA 369
scalar FogSequentialForward.fog[60].dispatcher jobs_class_1 3830519
scalar FogSequentialForward.fog[60].dispatcher remoteJobs_class_1 3816121
scalar FogSequentialForward.fog[60].dispatcher localJobs_class_1 14029
scalar FogSequentialForward.fog[60].dispatcher droppedJobsSLA_class_1 369
scalar FogSequentialForward.fog[60].server[0] rho 0.99999582767487
scalar FogSequentialForward.fog[60].server[0] congestionRatio 0
scalar FogSequentialForward.fog[60].server[0] totalJobs 14029
scalar FogSequentialForward.fog[60].server[0] droppedJobsQueue 771
scalar FogSequentialForward.fog[60].server[0] droppedJobsTimout 0
scalar FogSequentialForward.fog[60].server[0] droppedJobsSLA 8272
scalar FogSequentialForward.fog[60].server[0] droppedJobsTotal 9043
scalar FogSequentialForward.fog[61].dispatcher localJobs 14066
scalar FogSequentialForward.fog[61].dispatcher internalJobs 14439
scalar FogSequentialForward.fog[61].dispatcher externalJobs 3820146
scalar FogSequentialForward.fog[61].dispatcher remoteJobs 3820142
scalar FogSequentialForward.fog[61].dispatcher probeQueries 0
scalar FogSequentialForward.fog[61].dispatcher probeAnswers 0
scalar FogSequentialForward.fog[61].dispatcher droppedJobsSLA 377
scalar FogSequentialForward.fog[61].dispatcher jobs_class_1 3834585
scalar FogSequentialForward.fog[61].dispatcher remoteJobs_class_1 3820142
scalar FogSequentialForward.fog[61].dispatcher localJobs_class_1 14066
scalar FogSequentialForward.fog[61].dispatcher droppedJobsSLA_class_1 377
scalar FogSequentialForward.fog[61].server[0] rho 0.99992936849594
scalar FogSequentialForward.fog[61].server[0] congestionRatio 0
scalar FogSequentialForward.fog[61].server[0] totalJobs 14066
scalar FogSequentialForward.fog[61].server[0] droppedJobsQueue 770
scalar FogSequentialForward.fog[61].server[0] droppedJobsTimout 0
scalar FogSequentialForward.fog[61].server[0] droppedJobsSLA 8360
scalar FogSequentialForward.fog[61].server[0] droppedJobsTotal 9130
scalar FogSequentialForward.fog[62].dispatcher localJobs 14140
scalar FogSequentialForward.fog[62].dispatcher internalJobs 14598
scalar FogSequentialForward.fog[62].dispatcher externalJobs 3817099
scalar FogSequentialForward.fog[62].dispatcher remoteJobs 3817208
scalar FogSequentialForward.fog[62].dispatcher probeQueries 0
scalar FogSequentialForward.fog[62].dispatcher probeAnswers 0
scalar FogSequentialForward.fog[62].dispatcher droppedJobsSLA 349
scalar FogSequentialForward.fog[62].dispatcher jobs_class_1 3831697
scalar FogSequentialForward.fog[62].dispatcher remoteJobs_class_1 3817208
scalar FogSequentialForward.fog[62].dispatcher localJobs_class_1 14140
scalar FogSequentialForward.fog[62].dispatcher droppedJobsSLA_class_1 349
scalar FogSequentialForward.fog[62].server[0] rho 0.99999541044235
scalar FogSequentialForward.fog[62].server[0] congestionRatio 0
scalar FogSequentialForward.fog[62].server[0] totalJobs 14140
scalar FogSequentialForward.fog[62].server[0] droppedJobsQueue 776
scalar FogSequentialForward.fog[62].server[0] droppedJobsTimout 0
scalar FogSequentialForward.fog[62].server[0] droppedJobsSLA 8389
scalar FogSequentialForward.fog[62].server[0] droppedJobsTotal 9165
scalar FogSequentialForward.fog[63].dispatcher localJobs 14085
scalar FogSequentialForward.fog[63].dispatcher internalJobs 14485
scalar FogSequentialForward.fog[63].dispatcher externalJobs 3821450
scalar FogSequentialForward.fog[63].dispatcher remoteJobs 3821470
scalar FogSequentialForward.fog[63].dispatcher probeQueries 0
scalar FogSequentialForward.fog[63].dispatcher probeAnswers 0
scalar FogSequentialForward.fog[63].dispatcher droppedJobsSLA 380
scalar FogSequentialForward.fog[63].dispatcher jobs_class_1 3835935
scalar FogSequentialForward.fog[63].dispatcher remoteJobs_class_1 3821470
scalar FogSequentialForward.fog[63].dispatcher localJobs_class_1 14085
scalar FogSequentialForward.fog[63].dispatcher droppedJobsSLA_class_1 380
scalar FogSequentialForward.fog[63].server[0] rho 0.99999713897705
scalar FogSequentialForward.fog[63].server[0] congestionRatio 0
scalar FogSequentialForward.fog[63].server[0] totalJobs 14085
scalar FogSequentialForward.fog[63].server[0] droppedJobsQueue 773
scalar FogSequentialForward.fog[63].server[0] droppedJobsTimout 0
scalar FogSequentialForward.fog[63].server[0] droppedJobsSLA 8358
scalar FogSequentialForward.fog[63].server[0] droppedJobsTotal 9131
scalar FogSequentialForward.fog[64].dispatcher localJobs 14100
scalar FogSequentialForward.fog[64].dispatcher internalJobs 14280
scalar FogSequentialForward.fog[64].dispatcher externalJobs 3818560
scalar FogSequentialForward.fog[64].dispatcher remoteJobs 3818345
scalar FogSequentialForward.fog[64].dispatcher probeQueries 0
scalar FogSequentialForward.fog[64].dispatcher probeAnswers 0
scalar FogSequentialForward.fog[64].dispatcher droppedJobsSLA 395
scalar FogSequentialForward.fog[64].dispatcher jobs_class_1 3832840
scalar FogSequentialForward.fog[64].dispatcher remoteJobs_class_1 3818345
scalar FogSequentialForward.fog[64].dispatcher localJobs_class_1 14100
scalar FogSequentialForward.fog[64].dispatcher droppedJobsSLA_class_1 395
scalar FogSequentialForward.fog[64].server[0] rho 0.99999493360519
scalar FogSequentialForward.fog[64].server[0] congestionRatio 0
scalar FogSequentialForward.fog[64].server[0] totalJobs 14100
scalar FogSequentialForward.fog[64].server[0] droppedJobsQueue 771
scalar FogSequentialForward.fog[64].server[0] droppedJobsTimout 0
scalar FogSequentialForward.fog[64].server[0] droppedJobsSLA 8370
scalar FogSequentialForward.fog[64].server[0] droppedJobsTotal 9141
scalar FogSequentialForward.fog[65].dispatcher localJobs 14075
scalar FogSequentialForward.fog[65].dispatcher internalJobs 14475
scalar FogSequentialForward.fog[65].dispatcher externalJobs 3820719
scalar FogSequentialForward.fog[65].dispatcher remoteJobs 3820773
scalar FogSequentialForward.fog[65].dispatcher probeQueries 0
scalar FogSequentialForward.fog[65].dispatcher probeAnswers 0
scalar FogSequentialForward.fog[65].dispatcher droppedJobsSLA 346
scalar FogSequentialForward.fog[65].dispatcher jobs_class_1 3835194
scalar FogSequentialForward.fog[65].dispatcher remoteJobs_class_1 3820773
scalar FogSequentialForward.fog[65].dispatcher localJobs_class_1 14075
scalar FogSequentialForward.fog[65].dispatcher droppedJobsSLA_class_1 346
scalar FogSequentialForward.fog[65].server[0] rho 0.99993371963501
scalar FogSequentialForward.fog[65].server[0] congestionRatio 0
[...]
scalar FogSequentialForward.fog[84].dispatcher probeAnswers 0
scalar FogSequentialForward.fog[84].dispatcher droppedJobsSLA 382
scalar FogSequentialForward.fog[84].dispatcher jobs_class_1 3830690
scalar FogSequentialForward.fog[84].dispatcher remoteJobs_class_1 3816270
scalar FogSequentialForward.fog[84].dispatcher localJobs_class_1 14038
scalar FogSequentialForward.fog[84].dispatcher droppedJobsSLA_class_1 382
scalar FogSequentialForward.fog[84].server[0] rho 0.99999612569809
scalar FogSequentialForward.fog[84].server[0] congestionRatio 0
scalar FogSequentialForward.fog[84].server[0] totalJobs 14038
scalar FogSequentialForward.fog[84].server[0] droppedJobsQueue 771
scalar FogSequentialForward.fog[84].server[0] droppedJobsTimout 0
scalar FogSequentialForward.fog[84].server[0] droppedJobsSLA 8304
scalar FogSequentialForward.fog[84].server[0] droppedJobsTotal 9075
scalar FogSequentialForward.fog[85].dispatcher localJobs 14032
scalar FogSequentialForward.fog[85].dispatcher internalJobs 14388
scalar FogSequentialForward.fog[85].dispatcher externalJobs 3822769
scalar FogSequentialForward.fog[85].dispatcher remoteJobs 3822714
scalar FogSequentialForward.fog[85].dispatcher probeQueries 0
scalar FogSequentialForward.fog[85].dispatcher probeAnswers 0
scalar FogSequentialForward.fog[85].dispatcher droppedJobsSLA 411
scalar FogSequentialForward.fog[85].dispatcher jobs_class_1 3837157
scalar FogSequentialForward.fog[85].dispatcher remoteJobs_class_1 3822714
scalar FogSequentialForward.fog[85].dispatcher localJobs_class_1 14032
scalar FogSequentialForward.fog[85].dispatcher droppedJobsSLA_class_1 411
scalar FogSequentialForward.fog[85].server[0] rho 0.99999397993088
scalar FogSequentialForward.fog[85].server[0] congestionRatio 0
scalar FogSequentialForward.fog[85].server[0] totalJobs 14032
scalar FogSequentialForward.fog[85].server[0] droppedJobsQueue 770
scalar FogSequentialForward.fog[85].server[0] droppedJobsTimout 0
scalar FogSequentialForward.fog[85].server[0] droppedJobsSLA 8283
scalar FogSequentialForward.fog[85].server[0] droppedJobsTotal 9053
scalar FogSequentialForward.fog[86].dispatcher localJobs 14065
scalar FogSequentialForward.fog[86].dispatcher internalJobs 14454
scalar FogSequentialForward.fog[86].dispatcher externalJobs 3821052
scalar FogSequentialForward.fog[86].dispatcher remoteJobs 3821052
scalar FogSequentialForward.fog[86].dispatcher probeQueries 0
scalar FogSequentialForward.fog[86].dispatcher probeAnswers 0
scalar FogSequentialForward.fog[86].dispatcher droppedJobsSLA 389
scalar FogSequentialForward.fog[86].dispatcher jobs_class_1 3835506
scalar FogSequentialForward.fog[86].dispatcher remoteJobs_class_1 3821052
scalar FogSequentialForward.fog[86].dispatcher localJobs_class_1 14065
scalar FogSequentialForward.fog[86].dispatcher droppedJobsSLA_class_1 389
scalar FogSequentialForward.fog[86].server[0] rho 0.99999821186066
scalar FogSequentialForward.fog[86].server[0] congestionRatio 0
scalar FogSequentialForward.fog[86].server[0] totalJobs 14065
scalar FogSequentialForward.fog[86].server[0] droppedJobsQueue 774
scalar FogSequentialForward.fog[86].server[0] droppedJobsTimout 0
scalar FogSequentialForward.fog[86].server[0] droppedJobsSLA 8352
scalar FogSequentialForward.fog[86].server[0] droppedJobsTotal 9126
scalar FogSequentialForward.fog[87].dispatcher localJobs 14084
scalar FogSequentialForward.fog[87].dispatcher internalJobs 14567
scalar FogSequentialForward.fog[87].dispatcher externalJobs 3818329
scalar FogSequentialForward.fog[87].dispatcher remoteJobs 3818431
scalar FogSequentialForward.fog[87].dispatcher probeQueries 0
scalar FogSequentialForward.fog[87].dispatcher probeAnswers 0
scalar FogSequentialForward.fog[87].dispatcher droppedJobsSLA 381
scalar FogSequentialForward.fog[87].dispatcher jobs_class_1 3832896
scalar FogSequentialForward.fog[87].dispatcher remoteJobs_class_1 3818431
scalar FogSequentialForward.fog[87].dispatcher localJobs_class_1 14084
scalar FogSequentialForward.fog[87].dispatcher droppedJobsSLA_class_1 381
scalar FogSequentialForward.fog[87].server[0] rho 0.99981474876404
scalar FogSequentialForward.fog[87].server[0] congestionRatio 0
scalar FogSequentialForward.fog[87].server[0] totalJobs 14084
scalar FogSequentialForward.fog[87].server[0] droppedJobsQueue 774
scalar FogSequentialForward.fog[87].server[0] droppedJobsTimout 0
scalar FogSequentialForward.fog[87].server[0] droppedJobsSLA 8342
scalar FogSequentialForward.fog[87].server[0] droppedJobsTotal 9116
scalar FogSequentialForward.fog[88].dispatcher localJobs 14039
scalar FogSequentialForward.fog[88].dispatcher internalJobs 14444
scalar FogSequentialForward.fog[88].dispatcher externalJobs 3817905
scalar FogSequentialForward.fog[88].dispatcher remoteJobs 3817944
scalar FogSequentialForward.fog[88].dispatcher probeQueries 0
scalar FogSequentialForward.fog[88].dispatcher probeAnswers 0
scalar FogSequentialForward.fog[88].dispatcher droppedJobsSLA 366
scalar FogSequentialForward.fog[88].dispatcher jobs_class_1 3832349
scalar FogSequentialForward.fog[88].dispatcher remoteJobs_class_1 3817944
scalar FogSequentialForward.fog[88].dispatcher localJobs_class_1 14039
scalar FogSequentialForward.fog[88].dispatcher droppedJobsSLA_class_1 366
scalar FogSequentialForward.fog[88].server[0] rho 0.99999493360519
scalar FogSequentialForward.fog[88].server[0] congestionRatio 0
scalar FogSequentialForward.fog[88].server[0] totalJobs 14039
scalar FogSequentialForward.fog[88].server[0] droppedJobsQueue 769
scalar FogSequentialForward.fog[88].server[0] droppedJobsTimout 0
scalar FogSequentialForward.fog[88].server[0] droppedJobsSLA 8346
scalar FogSequentialForward.fog[88].server[0] droppedJobsTotal 9115
scalar FogSequentialForward.fog[89].dispatcher localJobs 14070
scalar FogSequentialForward.fog[89].dispatcher internalJobs 14415
scalar FogSequentialForward.fog[89].dispatcher externalJobs 3818531
scalar FogSequentialForward.fog[89].dispatcher remoteJobs 3818500
scalar FogSequentialForward.fog[89].dispatcher probeQueries 0
scalar FogSequentialForward.fog[89].dispatcher probeAnswers 0
scalar FogSequentialForward.fog[89].dispatcher droppedJobsSLA 376
scalar FogSequentialForward.fog[89].dispatcher jobs_class_1 3832946
scalar FogSequentialForward.fog[89].dispatcher remoteJobs_class_1 3818500
scalar FogSequentialForward.fog[89].dispatcher localJobs_class_1 14070
scalar FogSequentialForward.fog[89].dispatcher droppedJobsSLA_class_1 376
scalar FogSequentialForward.fog[89].server[0] rho 0.9999960064888
scalar FogSequentialForward.fog[89].server[0] congestionRatio 0
scalar FogSequentialForward.fog[89].server[0] totalJobs 14070
scalar FogSequentialForward.fog[89].server[0] droppedJobsQueue 770
scalar FogSequentialForward.fog[89].server[0] droppedJobsTimout 0
scalar FogSequentialForward.fog[89].server[0] droppedJobsSLA 8308
scalar FogSequentialForward.fog[89].server[0] droppedJobsTotal 9078
scalar FogSequentialForward.fog[90].dispatcher localJobs 14132
scalar FogSequentialForward.fog[90].dispatcher internalJobs 14340
scalar FogSequentialForward.fog[90].dispatcher externalJobs 3820997
scalar FogSequentialForward.fog[90].dispatcher remoteJobs 3820883
scalar FogSequentialForward.fog[90].dispatcher probeQueries 0
scalar FogSequentialForward.fog[90].dispatcher probeAnswers 0
scalar FogSequentialForward.fog[90].dispatcher droppedJobsSLA 322
scalar FogSequentialForward.fog[90].dispatcher jobs_class_1 3835337
scalar FogSequentialForward.fog[90].dispatcher remoteJobs_class_1 3820883
scalar FogSequentialForward.fog[90].dispatcher localJobs_class_1 14132
scalar FogSequentialForward.fog[90].dispatcher droppedJobsSLA_class_1 322
scalar FogSequentialForward.fog[90].server[0] rho 0.99999731779099
scalar FogSequentialForward.fog[90].server[0] congestionRatio 0
scalar FogSequentialForward.fog[90].server[0] totalJobs 14132
scalar FogSequentialForward.fog[90].server[0] droppedJobsQueue 777
scalar FogSequentialForward.fog[90].server[0] droppedJobsTimout 0
scalar FogSequentialForward.fog[90].server[0] droppedJobsSLA 8415
scalar FogSequentialForward.fog[90].server[0] droppedJobsTotal 9192
scalar FogSequentialForward.fog[91].dispatcher localJobs 14073
scalar FogSequentialForward.fog[91].dispatcher internalJobs 14486
scalar FogSequentialForward.fog[91].dispatcher externalJobs 3820018
scalar FogSequentialForward.fog[91].dispatcher remoteJobs 3820044
scalar FogSequentialForward.fog[91].dispatcher probeQueries 0
scalar FogSequentialForward.fog[91].dispatcher probeAnswers 0
scalar FogSequentialForward.fog[91].dispatcher droppedJobsSLA 387
scalar FogSequentialForward.fog[91].dispatcher jobs_class_1 3834504
scalar FogSequentialForward.fog[91].dispatcher remoteJobs_class_1 3820044
scalar FogSequentialForward.fog[91].dispatcher localJobs_class_1 14073
scalar FogSequentialForward.fog[91].dispatcher droppedJobsSLA_class_1 387
scalar FogSequentialForward.fog[91].server[0] rho 0.999995470047
scalar FogSequentialForward.fog[91].server[0] congestionRatio 0
scalar FogSequentialForward.fog[91].server[0] totalJobs 14073
scalar FogSequentialForward.fog[91].server[0] droppedJobsQueue 770
scalar FogSequentialForward.fog[91].server[0] droppedJobsTimout 0
scalar FogSequentialForward.fog[91].server[0] droppedJobsSLA 8361
scalar FogSequentialForward.fog[91].server[0] droppedJobsTotal 9131
scalar FogSequentialForward.fog[92].dispatcher localJobs 14050
scalar FogSequentialForward.fog[92].dispatcher internalJobs 14398
scalar FogSequentialForward.fog[92].dispatcher externalJobs 3820843
scalar FogSequentialForward.fog[92].dispatcher remoteJobs 3820843
scalar FogSequentialForward.fog[92].dispatcher probeQueries 0
scalar FogSequentialForward.fog[92].dispatcher probeAnswers 0
scalar FogSequentialForward.fog[92].dispatcher droppedJobsSLA 348
scalar FogSequentialForward.fog[92].dispatcher jobs_class_1 3835241
scalar FogSequentialForward.fog[92].dispatcher remoteJobs_class_1 3820843
scalar FogSequentialForward.fog[92].dispatcher localJobs_class_1 14050
scalar FogSequentialForward.fog[92].dispatcher droppedJobsSLA_class_1 348
scalar FogSequentialForward.fog[92].server[0] rho 0.99999690055847
scalar FogSequentialForward.fog[92].server[0] congestionRatio 0
scalar FogSequentialForward.fog[92].server[0] totalJobs 14050
scalar FogSequentialForward.fog[92].server[0] droppedJobsQueue 772
scalar FogSequentialForward.fog[92].server[0] droppedJobsTimout 0
scalar FogSequentialForward.fog[92].server[0] droppedJobsSLA 8321
scalar FogSequentialForward.fog[92].server[0] droppedJobsTotal 9093
scalar FogSequentialForward.fog[93].dispatcher localJobs 14114
scalar FogSequentialForward.fog[93].dispatcher internalJobs 14436
scalar FogSequentialForward.fog[93].dispatcher externalJobs 3821891
scalar FogSequentialForward.fog[93].dispatcher remoteJobs 3821839
scalar FogSequentialForward.fog[93].dispatcher probeQueries 0
scalar FogSequentialForward.fog[93].dispatcher probeAnswers 0
scalar FogSequentialForward.fog[93].dispatcher droppedJobsSLA 374
scalar FogSequentialForward.fog[93].dispatcher jobs_class_1 3836327
scalar FogSequentialForward.fog[93].dispatcher remoteJobs_class_1 3821839
scalar FogSequentialForward.fog[93].dispatcher localJobs_class_1 14114
scalar FogSequentialForward.fog[93].dispatcher droppedJobsSLA_class_1 374
scalar FogSequentialForward.fog[93].server[0] rho 0.99999505281448
scalar FogSequentialForward.fog[93].server[0] congestionRatio 0
scalar FogSequentialForward.fog[93].server[0] totalJobs 14114
scalar FogSequentialForward.fog[93].server[0] droppedJobsQueue 771
scalar FogSequentialForward.fog[93].server[0] droppedJobsTimout 0
scalar FogSequentialForward.fog[93].server[0] droppedJobsSLA 8353
scalar FogSequentialForward.fog[93].server[0] droppedJobsTotal 9124
scalar FogSequentialForward.fog[94].dispatcher localJobs 14054
scalar FogSequentialForward.fog[94].dispatcher internalJobs 14504
scalar FogSequentialForward.fog[94].dispatcher externalJobs 3817037
scalar FogSequentialForward.fog[94].dispatcher remoteJobs 3817148
scalar FogSequentialForward.fog[94].dispatcher probeQueries 0
scalar FogSequentialForward.fog[94].dispatcher probeAnswers 0
scalar FogSequentialForward.fog[94].dispatcher droppedJobsSLA 339
scalar FogSequentialForward.fog[94].dispatcher jobs_class_1 3831541
scalar FogSequentialForward.fog[94].dispatcher remoteJobs_class_1 3817148
scalar FogSequentialForward.fog[94].dispatcher localJobs_class_1 14054
scalar FogSequentialForward.fog[94].dispatcher droppedJobsSLA_class_1 339
scalar FogSequentialForward.fog[94].server[0] rho 0.99999713897705
scalar FogSequentialForward.fog[94].server[0] congestionRatio 0
scalar FogSequentialForward.fog[94].server[0] totalJobs 14054
scalar FogSequentialForward.fog[94].server[0] droppedJobsQueue 772
scalar FogSequentialForward.fog[94].server[0] droppedJobsTimout 0
scalar FogSequentialForward.fog[94].server[0] droppedJobsSLA 8316
scalar FogSequentialForward.fog[94].server[0] droppedJobsTotal 9088
scalar FogSequentialForward.fog[95].dispatcher localJobs 14110
scalar FogSequentialForward.fog[95].dispatcher internalJobs 14385
scalar FogSequentialForward.fog[95].dispatcher externalJobs 3815472
scalar FogSequentialForward.fog[95].dispatcher remoteJobs 3815363
scalar FogSequentialForward.fog[95].dispatcher probeQueries 0
scalar FogSequentialForward.fog[95].dispatcher probeAnswers 0
scalar FogSequentialForward.fog[95].dispatcher droppedJobsSLA 384
scalar FogSequentialForward.fog[95].dispatcher jobs_class_1 3829857
scalar FogSequentialForward.fog[95].dispatcher remoteJobs_class_1 3815363
scalar FogSequentialForward.fog[95].dispatcher localJobs_class_1 14110
scalar FogSequentialForward.fog[95].dispatcher droppedJobsSLA_class_1 384
scalar FogSequentialForward.fog[95].server[0] rho 0.99999570846558
scalar FogSequentialForward.fog[95].server[0] congestionRatio 0
scalar FogSequentialForward.fog[95].server[0] totalJobs 14110
scalar FogSequentialForward.fog[95].server[0] droppedJobsQueue 774
scalar FogSequentialForward.fog[95].server[0] droppedJobsTimout 0
scalar FogSequentialForward.fog[95].server[0] droppedJobsSLA 8397
scalar FogSequentialForward.fog[95].server[0] droppedJobsTotal 9171
scalar FogSequentialForward.fog[96].dispatcher localJobs 14100
scalar FogSequentialForward.fog[96].dispatcher internalJobs 14301
scalar FogSequentialForward.fog[96].dispatcher externalJobs 3819659
scalar FogSequentialForward.fog[96].dispatcher remoteJobs 3819486
scalar FogSequentialForward.fog[96].dispatcher probeQueries 0
scalar FogSequentialForward.fog[96].dispatcher probeAnswers 0
scalar FogSequentialForward.fog[96].dispatcher droppedJobsSLA 374
scalar FogSequentialForward.fog[96].dispatcher jobs_class_1 3833960
scalar FogSequentialForward.fog[96].dispatcher remoteJobs_class_1 3819486
scalar FogSequentialForward.fog[96].dispatcher localJobs_class_1 14100
scalar FogSequentialForward.fog[96].dispatcher droppedJobsSLA_class_1 374
scalar FogSequentialForward.fog[96].server[0] rho 0.9999960064888
scalar FogSequentialForward.fog[96].server[0] congestionRatio 0
scalar FogSequentialForward.fog[96].server[0] totalJobs 14100
scalar FogSequentialForward.fog[96].server[0] droppedJobsQueue 773
scalar FogSequentialForward.fog[96].server[0] droppedJobsTimout 0
scalar FogSequentialForward.fog[96].server[0] droppedJobsSLA 8336
scalar FogSequentialForward.fog[96].server[0] droppedJobsTotal 9109
scalar FogSequentialForward.fog[97].dispatcher localJobs 14070
scalar FogSequentialForward.fog[97].dispatcher internalJobs 14259
scalar FogSequentialForward.fog[97].dispatcher externalJobs 3815436
scalar FogSequentialForward.fog[97].dispatcher remoteJobs 3815270
scalar FogSequentialForward.fog[97].dispatcher probeQueries 0
scalar FogSequentialForward.fog[97].dispatcher probeAnswers 0
scalar FogSequentialForward.fog[97].dispatcher droppedJobsSLA 355
scalar FogSequentialForward.fog[97].dispatcher jobs_class_1 3829695
scalar FogSequentialForward.fog[97].dispatcher remoteJobs_class_1 3815270
scalar FogSequentialForward.fog[97].dispatcher localJobs_class_1 14070
scalar FogSequentialForward.fog[97].dispatcher droppedJobsSLA_class_1 355
scalar FogSequentialForward.fog[97].server[0] rho 0.99999636411667
scalar FogSequentialForward.fog[97].server[0] congestionRatio 0
scalar FogSequentialForward.fog[97].server[0] totalJobs 14070
scalar FogSequentialForward.fog[97].server[0] droppedJobsQueue 772
scalar FogSequentialForward.fog[97].server[0] droppedJobsTimout 0
scalar FogSequentialForward.fog[97].server[0] droppedJobsSLA 8330
scalar FogSequentialForward.fog[97].server[0] droppedJobsTotal 9102
scalar FogSequentialForward.fog[98].dispatcher localJobs 14080
scalar FogSequentialForward.fog[98].dispatcher internalJobs 14221
scalar FogSequentialForward.fog[98].dispatcher externalJobs 3818710
scalar FogSequentialForward.fog[98].dispatcher remoteJobs 3818492
scalar FogSequentialForward.fog[98].dispatcher probeQueries 0
scalar FogSequentialForward.fog[98].dispatcher probeAnswers 0
scalar FogSequentialForward.fog[98].dispatcher droppedJobsSLA 359
scalar FogSequentialForward.fog[98].dispatcher jobs_class_1 3832931
scalar FogSequentialForward.fog[98].dispatcher remoteJobs_class_1 3818492
scalar FogSequentialForward.fog[98].dispatcher localJobs_class_1 14080
scalar FogSequentialForward.fog[98].dispatcher droppedJobsSLA_class_1 359
scalar FogSequentialForward.fog[98].server[0] rho 0.99999392032623
scalar FogSequentialForward.fog[98].server[0] congestionRatio 0
scalar FogSequentialForward.fog[98].server[0] totalJobs 14080
scalar FogSequentialForward.fog[98].server[0] droppedJobsQueue 769
scalar FogSequentialForward.fog[98].server[0] droppedJobsTimout 0
scalar FogSequentialForward.fog[98].server[0] droppedJobsSLA 8356
scalar FogSequentialForward.fog[98].server[0] droppedJobsTotal 9125
scalar FogSequentialForward.fog[99].dispatcher localJobs 14103
scalar FogSequentialForward.fog[99].dispatcher internalJobs 14421
scalar FogSequentialForward.fog[99].dispatcher externalJobs 3820869
scalar FogSequentialForward.fog[99].dispatcher remoteJobs 3820818
scalar FogSequentialForward.fog[99].dispatcher probeQueries 0
scalar FogSequentialForward.fog[99].dispatcher probeAnswers 0
scalar FogSequentialForward.fog[99].dispatcher droppedJobsSLA 369
scalar FogSequentialForward.fog[99].dispatcher jobs_class_1 3835290
scalar FogSequentialForward.fog[99].dispatcher remoteJobs_class_1 3820818
scalar FogSequentialForward.fog[99].dispatcher localJobs_class_1 14103
scalar FogSequentialForward.fog[99].dispatcher droppedJobsSLA_class_1 369
scalar FogSequentialForward.fog[99].server[0] rho 0.99999701976776
scalar FogSequentialForward.fog[99].server[0] congestionRatio 0
scalar FogSequentialForward.fog[99].server[0] totalJobs 14103
scalar FogSequentialForward.fog[99].server[0] droppedJobsQueue 774
scalar FogSequentialForward.fog[99].server[0] droppedJobsTimout 0
scalar FogSequentialForward.fog[99].server[0] droppedJobsSLA 8405
scalar FogSequentialForward.fog[99].server[0] droppedJobsTotal 9179
scalar FogSequentialForward.sink avg_responseTime_1 11.903821761139
scalar FogSequentialForward.sink p90_responseTime_1 1.573900233267
scalar FogSequentialForward.sink med_responseTime_1 1.573900233267
scalar FogSequentialForward.sink avg_delayTime_1 0
scalar FogSequentialForward.sink p90_delayTime_1 0
scalar FogSequentialForward.sink med_delayTime_1 0
scalar FogSequentialForward.sink avg_queuingTime_1 7.6967064542589
scalar FogSequentialForward.sink p90_queuingTime_1 0
scalar FogSequentialForward.sink med_queuingTime_1 0
scalar FogSequentialForward.sink avg_serviceTime_1 1.6718253374303
scalar FogSequentialForward.sink p90_serviceTime_1 1.494086839042
scalar FogSequentialForward.sink med_serviceTime_1 1.494086839042
scalar FogSequentialForward.sink avg_balancerTime_1 2.5352899694492
scalar FogSequentialForward.sink p90_balancerTime_1 0
scalar FogSequentialForward.sink med_balancerTime_1 0
scalar FogSequentialForward.sink avg_balancerCount_1 152.81377062571
scalar FogSequentialForward.sink p90_balancerCount_1 1
scalar FogSequentialForward.sink med_balancerCount_1 1

