version 2
run Fog-mul_001-rho_09-thr_8-0-20190713-18:09:17-67602
attr configname Fog-mul_001-rho_09-thr_8
attr datetime 20190713-18:09:17
attr experiment Fog-mul_001-rho_09-thr_8
attr inifile FogSequentialForward.ini
attr iterationvars ""
attr iterationvarsf ""
attr measurement ""
attr network FogSequentialForward
attr processid 67602
attr repetition 0
attr replication #0
attr resultdir results
attr runnumber 0
attr seedset 0
param FogSequentialForward.proctimeMul 0.01
param FogSequentialForward.rho 0.9
param FogSequentialForward.fog[*].dispatcher.thr 8
param FogSequentialForward.nSources 100
param FogSequentialForward.rho 0.9
param FogSequentialForward.proctimeMul 1.0
param FogSequentialForward.source[*].appId 1
param FogSequentialForward.source[*].realTime true
param FogSequentialForward.source[*].multiHop true
param FogSequentialForward.fog[*].nServers 1
param FogSequentialForward.fog[*].dispatcher.fanOut 1
param FogSequentialForward.fog[*].server[*].timeSlice -1s
param FogSequentialForward.fog[*].server[*].timeout -1s
param FogSequentialForward.fog[*].server[*].capacity 20
param FogSequentialForward.fog[*].server[*].fifo true
param FogSequentialForward.fog[*].server[*].maxServiceTime -1s
param FogSequentialForward.fog[*].dispatcher.thr 1

scalar FogSequentialForward.fog[0].dispatcher localJobs 1318598
scalar FogSequentialForward.fog[0].dispatcher internalJobs 1621614
scalar FogSequentialForward.fog[0].dispatcher externalJobs 7609627
scalar FogSequentialForward.fog[0].dispatcher remoteJobs 7609054
scalar FogSequentialForward.fog[0].dispatcher probeQueries 0
scalar FogSequentialForward.fog[0].dispatcher probeAnswers 0
scalar FogSequentialForward.fog[0].dispatcher droppedJobsSLA 303589
scalar FogSequentialForward.fog[0].dispatcher jobs_class_1 9231241
scalar FogSequentialForward.fog[0].dispatcher remoteJobs_class_1 7609054
scalar FogSequentialForward.fog[0].dispatcher localJobs_class_1 1318598
scalar FogSequentialForward.fog[0].dispatcher droppedJobsSLA_class_1 303589
scalar FogSequentialForward.fog[0].server[0] rho 0.9999994635582
scalar FogSequentialForward.fog[0].server[0] congestionRatio 0
scalar FogSequentialForward.fog[0].server[0] totalJobs 1318598
scalar FogSequentialForward.fog[0].server[0] droppedJobsQueue 26137
scalar FogSequentialForward.fog[0].server[0] droppedJobsTimout 0
scalar FogSequentialForward.fog[0].server[0] droppedJobsSLA 795068
scalar FogSequentialForward.fog[0].server[0] droppedJobsTotal 821205
scalar FogSequentialForward.fog[1].dispatcher localJobs 1319026
scalar FogSequentialForward.fog[1].dispatcher internalJobs 1621338
scalar FogSequentialForward.fog[1].dispatcher externalJobs 7609394
scalar FogSequentialForward.fog[1].dispatcher remoteJobs 7608736
scalar FogSequentialForward.fog[1].dispatcher probeQueries 0
scalar FogSequentialForward.fog[1].dispatcher probeAnswers 0
scalar FogSequentialForward.fog[1].dispatcher droppedJobsSLA 302970
scalar FogSequentialForward.fog[1].dispatcher jobs_class_1 9230732
scalar FogSequentialForward.fog[1].dispatcher remoteJobs_class_1 7608736
scalar FogSequentialForward.fog[1].dispatcher localJobs_class_1 1319026
scalar FogSequentialForward.fog[1].dispatcher droppedJobsSLA_class_1 302970
scalar FogSequentialForward.fog[1].server[0] rho 0.99999898672104
scalar FogSequentialForward.fog[1].server[0] congestionRatio 0
scalar FogSequentialForward.fog[1].server[0] totalJobs 1319026
scalar FogSequentialForward.fog[1].server[0] droppedJobsQueue 26456
scalar FogSequentialForward.fog[1].server[0] droppedJobsTimout 0
scalar FogSequentialForward.fog[1].server[0] droppedJobsSLA 795620
scalar FogSequentialForward.fog[1].server[0] droppedJobsTotal 822076
scalar FogSequentialForward.fog[2].dispatcher localJobs 1319479
scalar FogSequentialForward.fog[2].dispatcher internalJobs 1623041
scalar FogSequentialForward.fog[2].dispatcher externalJobs 7603006
scalar FogSequentialForward.fog[2].dispatcher remoteJobs 7603682
scalar FogSequentialForward.fog[2].dispatcher probeQueries 0
scalar FogSequentialForward.fog[2].dispatcher probeAnswers 0
scalar FogSequentialForward.fog[2].dispatcher droppedJobsSLA 302886
scalar FogSequentialForward.fog[2].dispatcher jobs_class_1 9226047
scalar FogSequentialForward.fog[2].dispatcher remoteJobs_class_1 7603682
scalar FogSequentialForward.fog[2].dispatcher localJobs_class_1 1319479
scalar FogSequentialForward.fog[2].dispatcher droppedJobsSLA_class_1 302886
scalar FogSequentialForward.fog[2].server[0] rho 0.9999994635582
scalar FogSequentialForward.fog[2].server[0] congestionRatio 0
scalar FogSequentialForward.fog[2].server[0] totalJobs 1319479
scalar FogSequentialForward.fog[2].server[0] droppedJobsQueue 26482
scalar FogSequentialForward.fog[2].server[0] droppedJobsTimout 0
scalar FogSequentialForward.fog[2].server[0] droppedJobsSLA 795953
scalar FogSequentialForward.fog[2].server[0] droppedJobsTotal 822435
scalar FogSequentialForward.fog[3].dispatcher localJobs 1319826
scalar FogSequentialForward.fog[3].dispatcher internalJobs 1622606
scalar FogSequentialForward.fog[3].dispatcher externalJobs 7611516
scalar FogSequentialForward.fog[3].dispatcher remoteJobs 7610638
scalar FogSequentialForward.fog[3].dispatcher probeQueries 0
scalar FogSequentialForward.fog[3].dispatcher probeAnswers 0
scalar FogSequentialForward.fog[3].dispatcher droppedJobsSLA 303658
scalar FogSequentialForward.fog[3].dispatcher jobs_class_1 9234122
scalar FogSequentialForward.fog[3].dispatcher remoteJobs_class_1 7610638
scalar FogSequentialForward.fog[3].dispatcher localJobs_class_1 1319826
scalar FogSequentialForward.fog[3].dispatcher droppedJobsSLA_class_1 303658
scalar FogSequentialForward.fog[3].server[0] rho 0.99999976158142
scalar FogSequentialForward.fog[3].server[0] congestionRatio 0
scalar FogSequentialForward.fog[3].server[0] totalJobs 1319826
scalar FogSequentialForward.fog[3].server[0] droppedJobsQueue 26422
scalar FogSequentialForward.fog[3].server[0] droppedJobsTimout 0
scalar FogSequentialForward.fog[3].server[0] droppedJobsSLA 796185
scalar FogSequentialForward.fog[3].server[0] droppedJobsTotal 822607
scalar FogSequentialForward.fog[4].dispatcher localJobs 1318374
scalar FogSequentialForward.fog[4].dispatcher internalJobs 1623307
scalar FogSequentialForward.fog[4].dispatcher externalJobs 7604698
scalar FogSequentialForward.fog[4].dispatcher remoteJobs 7606563
scalar FogSequentialForward.fog[4].dispatcher probeQueries 0
scalar FogSequentialForward.fog[4].dispatcher probeAnswers 0
scalar FogSequentialForward.fog[4].dispatcher droppedJobsSLA 303068
scalar FogSequentialForward.fog[4].dispatcher jobs_class_1 9228005
scalar FogSequentialForward.fog[4].dispatcher remoteJobs_class_1 7606563
scalar FogSequentialForward.fog[4].dispatcher localJobs_class_1 1318374
scalar FogSequentialForward.fog[4].dispatcher droppedJobsSLA_class_1 303068
scalar FogSequentialForward.fog[4].server[0] rho 0.99999839067459
scalar FogSequentialForward.fog[4].server[0] congestionRatio 0
scalar FogSequentialForward.fog[4].server[0] totalJobs 1318374
scalar FogSequentialForward.fog[4].server[0] droppedJobsQueue 26284
scalar FogSequentialForward.fog[4].server[0] droppedJobsTimout 0
scalar FogSequentialForward.fog[4].server[0] droppedJobsSLA 794526
scalar FogSequentialForward.fog[4].server[0] droppedJobsTotal 820810
scalar FogSequentialForward.fog[5].dispatcher localJobs 1318810
scalar FogSequentialForward.fog[5].dispatcher internalJobs 1623967
scalar FogSequentialForward.fog[5].dispatcher externalJobs 7610763
scalar FogSequentialForward.fog[5].dispatcher remoteJobs 7612159
scalar FogSequentialForward.fog[5].dispatcher probeQueries 0
scalar FogSequentialForward.fog[5].dispatcher probeAnswers 0
scalar FogSequentialForward.fog[5].dispatcher droppedJobsSLA 303761
scalar FogSequentialForward.fog[5].dispatcher jobs_class_1 9234730
scalar FogSequentialForward.fog[5].dispatcher remoteJobs_class_1 7612159
scalar FogSequentialForward.fog[5].dispatcher localJobs_class_1 1318810
scalar FogSequentialForward.fog[5].dispatcher droppedJobsSLA_class_1 303761
scalar FogSequentialForward.fog[5].server[0] rho 0.99999994039536
scalar FogSequentialForward.fog[5].server[0] congestionRatio 0
scalar FogSequentialForward.fog[5].server[0] totalJobs 1318810
scalar FogSequentialForward.fog[5].server[0] droppedJobsQueue 26461
scalar FogSequentialForward.fog[5].server[0] droppedJobsTimout 0
scalar FogSequentialForward.fog[5].server[0] droppedJobsSLA 794792
scalar FogSequentialForward.fog[5].server[0] droppedJobsTotal 821253
scalar FogSequentialForward.fog[6].dispatcher localJobs 1318892
scalar FogSequentialForward.fog[6].dispatcher internalJobs 1625546
scalar FogSequentialForward.fog[6].dispatcher externalJobs 7603744
scalar FogSequentialForward.fog[6].dispatcher remoteJobs 7607255
scalar FogSequentialForward.fog[6].dispatcher probeQueries 0
scalar FogSequentialForward.fog[6].dispatcher probeAnswers 0
scalar FogSequentialForward.fog[6].dispatcher droppedJobsSLA 303143
scalar FogSequentialForward.fog[6].dispatcher jobs_class_1 9229290
scalar FogSequentialForward.fog[6].dispatcher remoteJobs_class_1 7607255
scalar FogSequentialForward.fog[6].dispatcher localJobs_class_1 1318892
scalar FogSequentialForward.fog[6].dispatcher droppedJobsSLA_class_1 303143
scalar FogSequentialForward.fog[6].server[0] rho 0.99999904632568
scalar FogSequentialForward.fog[6].server[0] congestionRatio 0
scalar FogSequentialForward.fog[6].server[0] totalJobs 1318892
scalar FogSequentialForward.fog[6].server[0] droppedJobsQueue 26524
scalar FogSequentialForward.fog[6].server[0] droppedJobsTimout 0
scalar FogSequentialForward.fog[6].server[0] droppedJobsSLA 794406
scalar FogSequentialForward.fog[6].server[0] droppedJobsTotal 820930
scalar FogSequentialForward.fog[7].dispatcher localJobs 1318968
scalar FogSequentialForward.fog[7].dispatcher internalJobs 1622565
scalar FogSequentialForward.fog[7].dispatcher externalJobs 7609401
scalar FogSequentialForward.fog[7].dispatcher remoteJobs 7609625
scalar FogSequentialForward.fog[7].dispatcher probeQueries 0
scalar FogSequentialForward.fog[7].dispatcher probeAnswers 0
scalar FogSequentialForward.fog[7].dispatcher droppedJobsSLA 303373
scalar FogSequentialForward.fog[7].dispatcher jobs_class_1 9231966
scalar FogSequentialForward.fog[7].dispatcher remoteJobs_class_1 7609625
scalar FogSequentialForward.fog[7].dispatcher localJobs_class_1 1318968
scalar FogSequentialForward.fog[7].dispatcher droppedJobsSLA_class_1 303373
scalar FogSequentialForward.fog[7].server[0] rho 0.99999982118607
scalar FogSequentialForward.fog[7].server[0] congestionRatio 0
scalar FogSequentialForward.fog[7].server[0] totalJobs 1318968
scalar FogSequentialForward.fog[7].server[0] droppedJobsQueue 26447
scalar FogSequentialForward.fog[7].server[0] droppedJobsTimout 0
scalar FogSequentialForward.fog[7].server[0] droppedJobsSLA 795005
scalar FogSequentialForward.fog[7].server[0] droppedJobsTotal 821452
scalar FogSequentialForward.fog[8].dispatcher localJobs 1319957
scalar FogSequentialForward.fog[8].dispatcher internalJobs 1624002
scalar FogSequentialForward.fog[8].dispatcher externalJobs 7610227
scalar FogSequentialForward.fog[8].dispatcher remoteJobs 7610758
scalar FogSequentialForward.fog[8].dispatcher probeQueries 0
scalar FogSequentialForward.fog[8].dispatcher probeAnswers 0
scalar FogSequentialForward.fog[8].dispatcher droppedJobsSLA 303514
scalar FogSequentialForward.fog[8].dispatcher jobs_class_1 9234229
scalar FogSequentialForward.fog[8].dispatcher remoteJobs_class_1 7610758
scalar FogSequentialForward.fog[8].dispatcher localJobs_class_1 1319957
scalar FogSequentialForward.fog[8].dispatcher droppedJobsSLA_class_1 303514
scalar FogSequentialForward.fog[8].server[0] rho 0.99999910593033
scalar FogSequentialForward.fog[8].server[0] congestionRatio 0
scalar FogSequentialForward.fog[8].server[0] totalJobs 1319957
scalar FogSequentialForward.fog[8].server[0] droppedJobsQueue 26388
scalar FogSequentialForward.fog[8].server[0] droppedJobsTimout 0
scalar FogSequentialForward.fog[8].server[0] droppedJobsSLA 796711
scalar FogSequentialForward.fog[8].server[0] droppedJobsTotal 823099
scalar FogSequentialForward.fog[9].dispatcher localJobs 1319621
scalar FogSequentialForward.fog[9].dispatcher internalJobs 1624609
scalar FogSequentialForward.fog[9].dispatcher externalJobs 7611163
scalar FogSequentialForward.fog[9].dispatcher remoteJobs 7612523
scalar FogSequentialForward.fog[9].dispatcher probeQueries 0
scalar FogSequentialForward.fog[9].dispatcher probeAnswers 0
scalar FogSequentialForward.fog[9].dispatcher droppedJobsSLA 303628
scalar FogSequentialForward.fog[9].dispatcher jobs_class_1 9235772
scalar FogSequentialForward.fog[9].dispatcher remoteJobs_class_1 7612523
scalar FogSequentialForward.fog[9].dispatcher localJobs_class_1 1319621
scalar FogSequentialForward.fog[9].dispatcher droppedJobsSLA_class_1 303628
scalar FogSequentialForward.fog[9].server[0] rho 0.99999958276749
scalar FogSequentialForward.fog[9].server[0] congestionRatio 0
scalar FogSequentialForward.fog[9].server[0] totalJobs 1319621
scalar FogSequentialForward.fog[9].server[0] droppedJobsQueue 26381
scalar FogSequentialForward.fog[9].server[0] droppedJobsTimout 0
scalar FogSequentialForward.fog[9].server[0] droppedJobsSLA 796681
scalar FogSequentialForward.fog[9].server[0] droppedJobsTotal 823062
scalar FogSequentialForward.fog[10].dispatcher localJobs 1320207
scalar FogSequentialForward.fog[10].dispatcher internalJobs 1623330
scalar FogSequentialForward.fog[10].dispatcher externalJobs 7605839
scalar FogSequentialForward.fog[10].dispatcher remoteJobs 7606139
scalar FogSequentialForward.fog[10].dispatcher probeQueries 0
scalar FogSequentialForward.fog[10].dispatcher probeAnswers 0
scalar FogSequentialForward.fog[10].dispatcher droppedJobsSLA 302823
scalar FogSequentialForward.fog[10].dispatcher jobs_class_1 9229169
scalar FogSequentialForward.fog[10].dispatcher remoteJobs_class_1 7606139
scalar FogSequentialForward.fog[10].dispatcher localJobs_class_1 1320207
scalar FogSequentialForward.fog[10].dispatcher droppedJobsSLA_class_1 302823
scalar FogSequentialForward.fog[10].server[0] rho 0.99999988079071
scalar FogSequentialForward.fog[10].server[0] congestionRatio 0
scalar FogSequentialForward.fog[10].server[0] totalJobs 1320207
scalar FogSequentialForward.fog[10].server[0] droppedJobsQueue 26259
scalar FogSequentialForward.fog[10].server[0] droppedJobsTimout 0
scalar FogSequentialForward.fog[10].server[0] droppedJobsSLA 796545
scalar FogSequentialForward.fog[10].server[0] droppedJobsTotal 822804
scalar FogSequentialForward.fog[11].dispatcher localJobs 1319246
scalar FogSequentialForward.fog[11].dispatcher internalJobs 1621557
scalar FogSequentialForward.fog[11].dispatcher externalJobs 7609835
scalar FogSequentialForward.fog[11].dispatcher remoteJobs 7608315
scalar FogSequentialForward.fog[11].dispatcher probeQueries 0
scalar FogSequentialForward.fog[11].dispatcher probeAnswers 0
scalar FogSequentialForward.fog[11].dispatcher droppedJobsSLA 303831
scalar FogSequentialForward.fog[11].dispatcher jobs_class_1 9231392
scalar FogSequentialForward.fog[11].dispatcher remoteJobs_class_1 7608315
scalar FogSequentialForward.fog[11].dispatcher localJobs_class_1 1319246
scalar FogSequentialForward.fog[11].dispatcher droppedJobsSLA_class_1 303831
scalar FogSequentialForward.fog[11].server[0] rho 0.99999922513962
scalar FogSequentialForward.fog[11].server[0] congestionRatio 0
scalar FogSequentialForward.fog[11].server[0] totalJobs 1319246
scalar FogSequentialForward.fog[11].server[0] droppedJobsQueue 26387
scalar FogSequentialForward.fog[11].server[0] droppedJobsTimout 0
scalar FogSequentialForward.fog[11].server[0] droppedJobsSLA 795818
scalar FogSequentialForward.fog[11].server[0] droppedJobsTotal 822205
scalar FogSequentialForward.fog[12].dispatcher localJobs 1319139
scalar FogSequentialForward.fog[12].dispatcher internalJobs 1622661
scalar FogSequentialForward.fog[12].dispatcher externalJobs 7611210
scalar FogSequentialForward.fog[12].dispatcher remoteJobs 7611474
scalar FogSequentialForward.fog[12].dispatcher probeQueries 0
scalar FogSequentialForward.fog[12].dispatcher probeAnswers 0
scalar FogSequentialForward.fog[12].dispatcher droppedJobsSLA 303258
scalar FogSequentialForward.fog[12].dispatcher jobs_class_1 9233871
scalar FogSequentialForward.fog[12].dispatcher remoteJobs_class_1 7611474
scalar FogSequentialForward.fog[12].dispatcher localJobs_class_1 1319139
scalar FogSequentialForward.fog[12].dispatcher droppedJobsSLA_class_1 303258
scalar FogSequentialForward.fog[12].server[0] rho 0.99999916553497
scalar FogSequentialForward.fog[12].server[0] congestionRatio 0
scalar FogSequentialForward.fog[12].server[0] totalJobs 1319139
scalar FogSequentialForward.fog[12].server[0] droppedJobsQueue 26395
scalar FogSequentialForward.fog[12].server[0] droppedJobsTimout 0
scalar FogSequentialForward.fog[12].server[0] droppedJobsSLA 795528
scalar FogSequentialForward.fog[12].server[0] droppedJobsTotal 821923
scalar FogSequentialForward.fog[13].dispatcher localJobs 1320516
scalar FogSequentialForward.fog[13].dispatcher internalJobs 1624457
scalar FogSequentialForward.fog[13].dispatcher externalJobs 7605053
scalar FogSequentialForward.fog[13].dispatcher remoteJobs 7604872
scalar FogSequentialForward.fog[13].dispatcher probeQueries 0
scalar FogSequentialForward.fog[13].dispatcher probeAnswers 0
scalar FogSequentialForward.fog[13].dispatcher droppedJobsSLA 304122
scalar FogSequentialForward.fog[13].dispatcher jobs_class_1 9229510
scalar FogSequentialForward.fog[13].dispatcher remoteJobs_class_1 7604872
scalar FogSequentialForward.fog[13].dispatcher localJobs_class_1 1320516
scalar FogSequentialForward.fog[13].dispatcher droppedJobsSLA_class_1 304122
scalar FogSequentialForward.fog[13].server[0] rho 0.99999916553497
scalar FogSequentialForward.fog[13].server[0] congestionRatio 0
scalar FogSequentialForward.fog[13].server[0] totalJobs 1320516
scalar FogSequentialForward.fog[13].server[0] droppedJobsQueue 26608
scalar FogSequentialForward.fog[13].server[0] droppedJobsTimout 0
scalar FogSequentialForward.fog[13].server[0] droppedJobsSLA 796583
scalar FogSequentialForward.fog[13].server[0] droppedJobsTotal 823191
scalar FogSequentialForward.fog[14].dispatcher localJobs 1318995
scalar FogSequentialForward.fog[14].dispatcher internalJobs 1622238
scalar FogSequentialForward.fog[14].dispatcher externalJobs 7609100
scalar FogSequentialForward.fog[14].dispatcher remoteJobs 7608163
scalar FogSequentialForward.fog[14].dispatcher probeQueries 0
scalar FogSequentialForward.fog[14].dispatcher probeAnswers 0
scalar FogSequentialForward.fog[14].dispatcher droppedJobsSLA 304180
scalar FogSequentialForward.fog[14].dispatcher jobs_class_1 9231338
scalar FogSequentialForward.fog[14].dispatcher remoteJobs_class_1 7608163
scalar FogSequentialForward.fog[14].dispatcher localJobs_class_1 1318995
scalar FogSequentialForward.fog[14].dispatcher droppedJobsSLA_class_1 304180
scalar FogSequentialForward.fog[14].server[0] rho 0.99999952316284
scalar FogSequentialForward.fog[14].server[0] congestionRatio 0
scalar FogSequentialForward.fog[14].server[0] totalJobs 1318995
scalar FogSequentialForward.fog[14].server[0] droppedJobsQueue 26392
scalar FogSequentialForward.fog[14].server[0] droppedJobsTimout 0
scalar FogSequentialForward.fog[14].server[0] droppedJobsSLA 795101
scalar FogSequentialForward.fog[14].server[0] droppedJobsTotal 821493
scalar FogSequentialForward.fog[15].dispatcher localJobs 1319485
scalar FogSequentialForward.fog[15].dispatcher internalJobs 1624984
scalar FogSequentialForward.fog[15].dispatcher externalJobs 7608150
scalar FogSequentialForward.fog[15].dispatcher remoteJobs 7609867
scalar FogSequentialForward.fog[15].dispatcher probeQueries 0
scalar FogSequentialForward.fog[15].dispatcher probeAnswers 0
scalar FogSequentialForward.fog[15].dispatcher droppedJobsSLA 303782
scalar FogSequentialForward.fog[15].dispatcher jobs_class_1 9233134
scalar FogSequentialForward.fog[15].dispatcher remoteJobs_class_1 7609867
scalar FogSequentialForward.fog[15].dispatcher localJobs_class_1 1319485
scalar FogSequentialForward.fog[15].dispatcher droppedJobsSLA_class_1 303782
scalar FogSequentialForward.fog[15].server[0] rho 0.99999910593033
scalar FogSequentialForward.fog[15].server[0] congestionRatio 0
scalar FogSequentialForward.fog[15].server[0] totalJobs 1319485
scalar FogSequentialForward.fog[15].server[0] droppedJobsQueue 26416
scalar FogSequentialForward.fog[15].server[0] droppedJobsTimout 0
scalar FogSequentialForward.fog[15].server[0] droppedJobsSLA 796470
scalar FogSequentialForward.fog[15].server[0] droppedJobsTotal 822886
scalar FogSequentialForward.fog[16].dispatcher localJobs 1319743
scalar FogSequentialForward.fog[16].dispatcher internalJobs 1623953
scalar FogSequentialForward.fog[16].dispatcher externalJobs 7609969
scalar FogSequentialForward.fog[16].dispatcher remoteJobs 7610679
scalar FogSequentialForward.fog[16].dispatcher probeQueries 0
scalar FogSequentialForward.fog[16].dispatcher probeAnswers 0
scalar FogSequentialForward.fog[16].dispatcher droppedJobsSLA 303500
scalar FogSequentialForward.fog[16].dispatcher jobs_class_1 9233922
scalar FogSequentialForward.fog[16].dispatcher remoteJobs_class_1 7610679
scalar FogSequentialForward.fog[16].dispatcher localJobs_class_1 1319743
scalar FogSequentialForward.fog[16].dispatcher droppedJobsSLA_class_1 303500
scalar FogSequentialForward.fog[16].server[0] rho 0.99999928474426
scalar FogSequentialForward.fog[16].server[0] congestionRatio 0
scalar FogSequentialForward.fog[16].server[0] totalJobs 1319743
scalar FogSequentialForward.fog[16].server[0] droppedJobsQueue 26247
scalar FogSequentialForward.fog[16].server[0] droppedJobsTimout 0
scalar FogSequentialForward.fog[16].server[0] droppedJobsSLA 795971
scalar FogSequentialForward.fog[16].server[0] droppedJobsTotal 822218
scalar FogSequentialForward.fog[17].dispatcher localJobs 1320739
scalar FogSequentialForward.fog[17].dispatcher internalJobs 1621444
scalar FogSequentialForward.fog[17].dispatcher externalJobs 7605570
scalar FogSequentialForward.fog[17].dispatcher remoteJobs 7602054
scalar FogSequentialForward.fog[17].dispatcher probeQueries 0
scalar FogSequentialForward.fog[17].dispatcher probeAnswers 0
scalar FogSequentialForward.fog[17].dispatcher droppedJobsSLA 304221
scalar FogSequentialForward.fog[17].dispatcher jobs_class_1 9227014
scalar FogSequentialForward.fog[17].dispatcher remoteJobs_class_1 7602054
scalar FogSequentialForward.fog[17].dispatcher localJobs_class_1 1320739
scalar FogSequentialForward.fog[17].dispatcher droppedJobsSLA_class_1 304221
scalar FogSequentialForward.fog[17].server[0] rho 0.99999970197678
scalar FogSequentialForward.fog[17].server[0] congestionRatio 0
scalar FogSequentialForward.fog[17].server[0] totalJobs 1320739
scalar FogSequentialForward.fog[17].server[0] droppedJobsQueue 26561
scalar FogSequentialForward.fog[17].server[0] droppedJobsTimout 0
scalar FogSequentialForward.fog[17].server[0] droppedJobsSLA 796723
scalar FogSequentialForward.fog[17].server[0] droppedJobsTotal 823284
scalar FogSequentialForward.fog[18].dispatcher localJobs 1319624
scalar FogSequentialForward.fog[18].dispatcher internalJobs 1624299
scalar FogSequentialForward.fog[18].dispatcher externalJobs 7609582
scalar FogSequentialForward.fog[18].dispatcher remoteJobs 7610391
scalar FogSequentialForward.fog[18].dispatcher probeQueries 0
scalar FogSequentialForward.fog[18].dispatcher probeAnswers 0
scalar FogSequentialForward.fog[18].dispatcher droppedJobsSLA 303866
scalar FogSequentialForward.fog[18].dispatcher jobs_class_1 9233881
scalar FogSequentialForward.fog[18].dispatcher remoteJobs_class_1 7610391
scalar FogSequentialForward.fog[18].dispatcher localJobs_class_1 1319624
scalar FogSequentialForward.fog[18].dispatcher droppedJobsSLA_class_1 303866
scalar FogSequentialForward.fog[18].server[0] rho 0.99999952316284
scalar FogSequentialForward.fog[18].server[0] congestionRatio 0
scalar FogSequentialForward.fog[18].server[0] totalJobs 1319624
scalar FogSequentialForward.fog[18].server[0] droppedJobsQueue 26445
scalar FogSequentialForward.fog[18].server[0] droppedJobsTimout 0
scalar FogSequentialForward.fog[18].server[0] droppedJobsSLA 795951
scalar FogSequentialForward.fog[18].server[0] droppedJobsTotal 822396
scalar FogSequentialForward.fog[19].dispatcher localJobs 1320430
scalar FogSequentialForward.fog[19].dispatcher internalJobs 1624497
scalar FogSequentialForward.fog[19].dispatcher externalJobs 7615663
scalar FogSequentialForward.fog[19].dispatcher remoteJobs 7616169
scalar FogSequentialForward.fog[19].dispatcher probeQueries 0
scalar FogSequentialForward.fog[19].dispatcher probeAnswers 0
scalar FogSequentialForward.fog[19].dispatcher droppedJobsSLA 303561
scalar FogSequentialForward.fog[19].dispatcher jobs_class_1 9240160
scalar FogSequentialForward.fog[19].dispatcher remoteJobs_class_1 7616169
scalar FogSequentialForward.fog[19].dispatcher localJobs_class_1 1320430
scalar FogSequentialForward.fog[19].dispatcher droppedJobsSLA_class_1 303561
scalar FogSequentialForward.fog[19].server[0] rho 0.99999952316284
scalar FogSequentialForward.fog[19].server[0] congestionRatio 0
scalar FogSequentialForward.fog[19].server[0] totalJobs 1320430
scalar FogSequentialForward.fog[19].server[0] droppedJobsQueue 26624
scalar FogSequentialForward.fog[19].server[0] droppedJobsTimout 0
scalar FogSequentialForward.fog[19].server[0] droppedJobsSLA 796398
scalar FogSequentialForward.fog[19].server[0] droppedJobsTotal 823022
scalar FogSequentialForward.fog[20].dispatcher localJobs 1319682
scalar FogSequentialForward.fog[20].dispatcher internalJobs 1621369
scalar FogSequentialForward.fog[20].dispatcher externalJobs 7608356
scalar FogSequentialForward.fog[20].dispatcher remoteJobs 7607229
scalar FogSequentialForward.fog[20].dispatcher probeQueries 0
scalar FogSequentialForward.fog[20].dispatcher probeAnswers 0
scalar FogSequentialForward.fog[20].dispatcher droppedJobsSLA 302814
scalar FogSequentialForward.fog[20].dispatcher jobs_class_1 9229725
scalar FogSequentialForward.fog[20].dispatcher remoteJobs_class_1 7607229
scalar FogSequentialForward.fog[20].dispatcher localJobs_class_1 1319682
scalar FogSequentialForward.fog[20].dispatcher droppedJobsSLA_class_1 302814
scalar FogSequentialForward.fog[20].server[0] rho 0.99999976158142
scalar FogSequentialForward.fog[20].server[0] congestionRatio 0
scalar FogSequentialForward.fog[20].server[0] totalJobs 1319682
scalar FogSequentialForward.fog[20].server[0] droppedJobsQueue 26288
scalar FogSequentialForward.fog[20].server[0] droppedJobsTimout 0
scalar FogSequentialForward.fog[20].server[0] droppedJobsSLA 795983
scalar FogSequentialForward.fog[20].server[0] droppedJobsTotal 822271
scalar FogSequentialForward.fog[21].dispatcher localJobs 1319805
scalar FogSequentialForward.fog[21].dispatcher internalJobs 1623422
scalar FogSequentialForward.fog[21].dispatcher externalJobs 7608807
scalar FogSequentialForward.fog[21].dispatcher remoteJobs 7609469
scalar FogSequentialForward.fog[21].dispatcher probeQueries 0
scalar FogSequentialForward.fog[21].dispatcher probeAnswers 0
scalar FogSequentialForward.fog[21].dispatcher droppedJobsSLA 302955
scalar FogSequentialForward.fog[21].dispatcher jobs_class_1 9232229
scalar FogSequentialForward.fog[21].dispatcher remoteJobs_class_1 7609469
scalar FogSequentialForward.fog[21].dispatcher localJobs_class_1 1319805
scalar FogSequentialForward.fog[21].dispatcher droppedJobsSLA_class_1 302955
scalar FogSequentialForward.fog[21].server[0] rho 0.99999952316284
scalar FogSequentialForward.fog[21].server[0] congestionRatio 0
scalar FogSequentialForward.fog[21].server[0] totalJobs 1319805
scalar FogSequentialForward.fog[21].server[0] droppedJobsQueue 26344
scalar FogSequentialForward.fog[21].server[0] droppedJobsTimout 0
scalar FogSequentialForward.fog[21].server[0] droppedJobsSLA 796115
scalar FogSequentialForward.fog[21].server[0] droppedJobsTotal 822459
scalar FogSequentialForward.fog[22].dispatcher localJobs 1320725
scalar FogSequentialForward.fog[22].dispatcher internalJobs 1620934
scalar FogSequentialForward.fog[22].dispatcher externalJobs 7607354
scalar FogSequentialForward.fog[22].dispatcher remoteJobs 7603024
scalar FogSequentialForward.fog[22].dispatcher probeQueries 0
scalar FogSequentialForward.fog[22].dispatcher probeAnswers 0
scalar FogSequentialForward.fog[22].dispatcher droppedJobsSLA 304539
scalar FogSequentialForward.fog[22].dispatcher jobs_class_1 9228288
scalar FogSequentialForward.fog[22].dispatcher remoteJobs_class_1 7603024
scalar FogSequentialForward.fog[22].dispatcher localJobs_class_1 1320725
scalar FogSequentialForward.fog[22].dispatcher droppedJobsSLA_class_1 304539
scalar FogSequentialForward.fog[22].server[0] rho 0.99999940395355
scalar FogSequentialForward.fog[22].server[0] congestionRatio 0
scalar FogSequentialForward.fog[22].server[0] totalJobs 1320725
scalar FogSequentialForward.fog[22].server[0] droppedJobsQueue 26471
scalar FogSequentialForward.fog[22].server[0] droppedJobsTimout 0
scalar FogSequentialForward.fog[22].server[0] droppedJobsSLA 796431
scalar FogSequentialForward.fog[22].server[0] droppedJobsTotal 822902
scalar FogSequentialForward.fog[23].dispatcher localJobs 1318422
scalar FogSequentialForward.fog[23].dispatcher internalJobs 1624337
scalar FogSequentialForward.fog[23].dispatcher externalJobs 7614050
scalar FogSequentialForward.fog[23].dispatcher remoteJobs 7617326
scalar FogSequentialForward.fog[23].dispatcher probeQueries 0
scalar FogSequentialForward.fog[23].dispatcher probeAnswers 0
scalar FogSequentialForward.fog[23].dispatcher droppedJobsSLA 302639
scalar FogSequentialForward.fog[23].dispatcher jobs_class_1 9238387
scalar FogSequentialForward.fog[23].dispatcher remoteJobs_class_1 7617326
scalar FogSequentialForward.fog[23].dispatcher localJobs_class_1 1318422
scalar FogSequentialForward.fog[23].dispatcher droppedJobsSLA_class_1 302639
scalar FogSequentialForward.fog[23].server[0] rho 0.99999988079071
scalar FogSequentialForward.fog[23].server[0] congestionRatio 0
scalar FogSequentialForward.fog[23].server[0] totalJobs 1318422
scalar FogSequentialForward.fog[23].server[0] droppedJobsQueue 26337
scalar FogSequentialForward.fog[23].server[0] droppedJobsTimout 0
scalar FogSequentialForward.fog[23].server[0] droppedJobsSLA 795457
scalar FogSequentialForward.fog[23].server[0] droppedJobsTotal 821794
scalar FogSequentialForward.fog[24].dispatcher localJobs 1320064
scalar FogSequentialForward.fog[24].dispatcher internalJobs 1623142
scalar FogSequentialForward.fog[24].dispatcher externalJobs 7607048
scalar FogSequentialForward.fog[24].dispatcher remoteJobs 7606986
scalar FogSequentialForward.fog[24].dispatcher probeQueries 0
scalar FogSequentialForward.fog[24].dispatcher probeAnswers 0
scalar FogSequentialForward.fog[24].dispatcher droppedJobsSLA 303140
scalar FogSequentialForward.fog[24].dispatcher jobs_class_1 9230190
scalar FogSequentialForward.fog[24].dispatcher remoteJobs_class_1 7606986
scalar FogSequentialForward.fog[24].dispatcher localJobs_class_1 1320064
scalar FogSequentialForward.fog[24].dispatcher droppedJobsSLA_class_1 303140
scalar FogSequentialForward.fog[24].server[0] rho 0.99999791383743
scalar FogSequentialForward.fog[24].server[0] congestionRatio 0
scalar FogSequentialForward.fog[24].server[0] totalJobs 1320064
scalar FogSequentialForward.fog[24].server[0] droppedJobsQueue 26428
scalar FogSequentialForward.fog[24].server[0] droppedJobsTimout 0
scalar FogSequentialForward.fog[24].server[0] droppedJobsSLA 796384
scalar FogSequentialForward.fog[24].server[0] droppedJobsTotal 822812
scalar FogSequentialForward.fog[25].dispatcher localJobs 1320036
scalar FogSequentialForward.fog[25].dispatcher internalJobs 1622647
scalar FogSequentialForward.fog[25].dispatcher externalJobs 7606548
scalar FogSequentialForward.fog[25].dispatcher remoteJobs 7604886
scalar FogSequentialForward.fog[25].dispatcher probeQueries 0
scalar FogSequentialForward.fog[25].dispatcher probeAnswers 0
scalar FogSequentialForward.fog[25].dispatcher droppedJobsSLA 304273
scalar FogSequentialForward.fog[25].dispatcher jobs_class_1 9229195
scalar FogSequentialForward.fog[25].dispatcher remoteJobs_class_1 7604886
scalar FogSequentialForward.fog[25].dispatcher localJobs_class_1 1320036
scalar FogSequentialForward.fog[25].dispatcher droppedJobsSLA_class_1 304273
scalar FogSequentialForward.fog[25].server[0] rho 0.99999904632568
scalar FogSequentialForward.fog[25].server[0] congestionRatio 0
scalar FogSequentialForward.fog[25].server[0] totalJobs 1320036
scalar FogSequentialForward.fog[25].server[0] droppedJobsQueue 26465
scalar FogSequentialForward.fog[25].server[0] droppedJobsTimout 0
scalar FogSequentialForward.fog[25].server[0] droppedJobsSLA 796594
scalar FogSequentialForward.fog[25].server[0] droppedJobsTotal 823059
scalar FogSequentialForward.fog[26].dispatcher localJobs 1319750
scalar FogSequentialForward.fog[26].dispatcher internalJobs 1624251
scalar FogSequentialForward.fog[26].dispatcher externalJobs 7606808
scalar FogSequentialForward.fog[26].dispatcher remoteJobs 7607528
scalar FogSequentialForward.fog[26].dispatcher probeQueries 0
scalar FogSequentialForward.fog[26].dispatcher probeAnswers 0
scalar FogSequentialForward.fog[26].dispatcher droppedJobsSLA 303781
scalar FogSequentialForward.fog[26].dispatcher jobs_class_1 9231059
scalar FogSequentialForward.fog[26].dispatcher remoteJobs_class_1 7607528
scalar FogSequentialForward.fog[26].dispatcher localJobs_class_1 1319750
scalar FogSequentialForward.fog[26].dispatcher droppedJobsSLA_class_1 303781
scalar FogSequentialForward.fog[26].server[0] rho 0.9999988079071
scalar FogSequentialForward.fog[26].server[0] congestionRatio 0
scalar FogSequentialForward.fog[26].server[0] totalJobs 1319750
scalar FogSequentialForward.fog[26].server[0] droppedJobsQueue 26363
scalar FogSequentialForward.fog[26].server[0] droppedJobsTimout 0
scalar FogSequentialForward.fog[26].server[0] droppedJobsSLA 795878
scalar FogSequentialForward.fog[26].server[0] droppedJobsTotal 822241
scalar FogSequentialForward.fog[27].dispatcher localJobs 1318484
scalar FogSequentialForward.fog[27].dispatcher internalJobs 1622832
scalar FogSequentialForward.fog[27].dispatcher externalJobs 7614067
scalar FogSequentialForward.fog[27].dispatcher remoteJobs 7614555
scalar FogSequentialForward.fog[27].dispatcher probeQueries 0
scalar FogSequentialForward.fog[27].dispatcher probeAnswers 0
scalar FogSequentialForward.fog[27].dispatcher droppedJobsSLA 303860
scalar FogSequentialForward.fog[27].dispatcher jobs_class_1 9236899
scalar FogSequentialForward.fog[27].dispatcher remoteJobs_class_1 7614555
scalar FogSequentialForward.fog[27].dispatcher localJobs_class_1 1318484
scalar FogSequentialForward.fog[27].dispatcher droppedJobsSLA_class_1 303860
scalar FogSequentialForward.fog[27].server[0] rho 0.99999862909317
scalar FogSequentialForward.fog[27].server[0] congestionRatio 0
scalar FogSequentialForward.fog[27].server[0] totalJobs 1318484
scalar FogSequentialForward.fog[27].server[0] droppedJobsQueue 26230
scalar FogSequentialForward.fog[27].server[0] droppedJobsTimout 0
scalar FogSequentialForward.fog[27].server[0] droppedJobsSLA 794924
scalar FogSequentialForward.fog[27].server[0] droppedJobsTotal 821154
scalar FogSequentialForward.fog[28].dispatcher localJobs 1319446
scalar FogSequentialForward.fog[28].dispatcher internalJobs 1622238
scalar FogSequentialForward.fog[28].dispatcher externalJobs 7608818
scalar FogSequentialForward.fog[28].dispatcher remoteJobs 7608604
scalar FogSequentialForward.fog[28].dispatcher probeQueries 0
scalar FogSequentialForward.fog[28].dispatcher probeAnswers 0
scalar FogSequentialForward.fog[28].dispatcher droppedJobsSLA 303006
scalar FogSequentialForward.fog[28].dispatcher jobs_class_1 9231056
scalar FogSequentialForward.fog[28].dispatcher remoteJobs_class_1 7608604
scalar FogSequentialForward.fog[28].dispatcher localJobs_class_1 1319446
scalar FogSequentialForward.fog[28].dispatcher droppedJobsSLA_class_1 303006
scalar FogSequentialForward.fog[28].server[0] rho 0.99999958276749
scalar FogSequentialForward.fog[28].server[0] congestionRatio 0
scalar FogSequentialForward.fog[28].server[0] totalJobs 1319446
scalar FogSequentialForward.fog[28].server[0] droppedJobsQueue 26459
scalar FogSequentialForward.fog[28].server[0] droppedJobsTimout 0
scalar FogSequentialForward.fog[28].server[0] droppedJobsSLA 796524
scalar FogSequentialForward.fog[28].server[0] droppedJobsTotal 822983
scalar FogSequentialForward.fog[29].dispatcher localJobs 1319860
scalar FogSequentialForward.fog[29].dispatcher internalJobs 1623904
scalar FogSequentialForward.fog[29].dispatcher externalJobs 7609941
scalar FogSequentialForward.fog[29].dispatcher remoteJobs 7609600
scalar FogSequentialForward.fog[29].dispatcher probeQueries 0
scalar FogSequentialForward.fog[29].dispatcher probeAnswers 0
scalar FogSequentialForward.fog[29].dispatcher droppedJobsSLA 304385
scalar FogSequentialForward.fog[29].dispatcher jobs_class_1 9233845
scalar FogSequentialForward.fog[29].dispatcher remoteJobs_class_1 7609600
scalar FogSequentialForward.fog[29].dispatcher localJobs_class_1 1319860
scalar FogSequentialForward.fog[29].dispatcher droppedJobsSLA_class_1 304385
scalar FogSequentialForward.fog[29].server[0] rho 0.99999988079071
scalar FogSequentialForward.fog[29].server[0] congestionRatio 0
scalar FogSequentialForward.fog[29].server[0] totalJobs 1319860
scalar FogSequentialForward.fog[29].server[0] droppedJobsQueue 26410
scalar FogSequentialForward.fog[29].server[0] droppedJobsTimout 0
scalar FogSequentialForward.fog[29].server[0] droppedJobsSLA 796101
scalar FogSequentialForward.fog[29].server[0] droppedJobsTotal 822511
scalar FogSequentialForward.fog[30].dispatcher localJobs 1319317
scalar FogSequentialForward.fog[30].dispatcher internalJobs 1622259
scalar FogSequentialForward.fog[30].dispatcher externalJobs 7604439
scalar FogSequentialForward.fog[30].dispatcher remoteJobs 7605027
scalar FogSequentialForward.fog[30].dispatcher probeQueries 0
scalar FogSequentialForward.fog[30].dispatcher probeAnswers 0
scalar FogSequentialForward.fog[30].dispatcher droppedJobsSLA 302354
scalar FogSequentialForward.fog[30].dispatcher jobs_class_1 9226698
scalar FogSequentialForward.fog[30].dispatcher remoteJobs_class_1 7605027
scalar FogSequentialForward.fog[30].dispatcher localJobs_class_1 1319317
scalar FogSequentialForward.fog[30].dispatcher droppedJobsSLA_class_1 302354
scalar FogSequentialForward.fog[30].server[0] rho 0.99999839067459
scalar FogSequentialForward.fog[30].server[0] congestionRatio 0
scalar FogSequentialForward.fog[30].server[0] totalJobs 1319317
scalar FogSequentialForward.fog[30].server[0] droppedJobsQueue 26231
scalar FogSequentialForward.fog[30].server[0] droppedJobsTimout 0
scalar FogSequentialForward.fog[30].server[0] droppedJobsSLA 795713
scalar FogSequentialForward.fog[30].server[0] droppedJobsTotal 821944
scalar FogSequentialForward.fog[31].dispatcher localJobs 1318762
scalar FogSequentialForward.fog[31].dispatcher internalJobs 1623271
scalar FogSequentialForward.fog[31].dispatcher externalJobs 7608391
scalar FogSequentialForward.fog[31].dispatcher remoteJobs 7610397
scalar FogSequentialForward.fog[31].dispatcher probeQueries 0
scalar FogSequentialForward.fog[31].dispatcher probeAnswers 0
scalar FogSequentialForward.fog[31].dispatcher droppedJobsSLA 302503
scalar FogSequentialForward.fog[31].dispatcher jobs_class_1 9231662
scalar FogSequentialForward.fog[31].dispatcher remoteJobs_class_1 7610397
scalar FogSequentialForward.fog[31].dispatcher localJobs_class_1 1318762
scalar FogSequentialForward.fog[31].dispatcher droppedJobsSLA_class_1 302503
scalar FogSequentialForward.fog[31].server[0] rho 0.99999976158142
scalar FogSequentialForward.fog[31].server[0] congestionRatio 0
scalar FogSequentialForward.fog[31].server[0] totalJobs 1318762
scalar FogSequentialForward.fog[31].server[0] droppedJobsQueue 26217
scalar FogSequentialForward.fog[31].server[0] droppedJobsTimout 0
scalar FogSequentialForward.fog[31].server[0] droppedJobsSLA 795451
scalar FogSequentialForward.fog[31].server[0] droppedJobsTotal 821668
scalar FogSequentialForward.fog[32].dispatcher localJobs 1319249
scalar FogSequentialForward.fog[32].dispatcher internalJobs 1623162
scalar FogSequentialForward.fog[32].dispatcher externalJobs 7605144
scalar FogSequentialForward.fog[32].dispatcher remoteJobs 7605328
scalar FogSequentialForward.fog[32].dispatcher probeQueries 0
scalar FogSequentialForward.fog[32].dispatcher probeAnswers 0
scalar FogSequentialForward.fog[32].dispatcher droppedJobsSLA 303729
scalar FogSequentialForward.fog[32].dispatcher jobs_class_1 9228306
scalar FogSequentialForward.fog[32].dispatcher remoteJobs_class_1 7605328
scalar FogSequentialForward.fog[32].dispatcher localJobs_class_1 1319249
scalar FogSequentialForward.fog[32].dispatcher droppedJobsSLA_class_1 303729
scalar FogSequentialForward.fog[32].server[0] rho 0.99999892711639
scalar FogSequentialForward.fog[32].server[0] congestionRatio 0
scalar FogSequentialForward.fog[32].server[0] totalJobs 1319249
scalar FogSequentialForward.fog[32].server[0] droppedJobsQueue 26396
scalar FogSequentialForward.fog[32].server[0] droppedJobsTimout 0
scalar FogSequentialForward.fog[32].server[0] droppedJobsSLA 795679
scalar FogSequentialForward.fog[32].server[0] droppedJobsTotal 822075
scalar FogSequentialForward.fog[33].dispatcher localJobs 1318518
scalar FogSequentialForward.fog[33].dispatcher internalJobs 1624302
scalar FogSequentialForward.fog[33].dispatcher externalJobs 7608729
scalar FogSequentialForward.fog[33].dispatcher remoteJobs 7611684
scalar FogSequentialForward.fog[33].dispatcher probeQueries 0
scalar FogSequentialForward.fog[33].dispatcher probeAnswers 0
scalar FogSequentialForward.fog[33].dispatcher droppedJobsSLA 302829
scalar FogSequentialForward.fog[33].dispatcher jobs_class_1 9233031
scalar FogSequentialForward.fog[33].dispatcher remoteJobs_class_1 7611684
scalar FogSequentialForward.fog[33].dispatcher localJobs_class_1 1318518
scalar FogSequentialForward.fog[33].dispatcher droppedJobsSLA_class_1 302829
scalar FogSequentialForward.fog[33].server[0] rho 0.99999940395355
scalar FogSequentialForward.fog[33].server[0] congestionRatio 0
scalar FogSequentialForward.fog[33].server[0] totalJobs 1318518
scalar FogSequentialForward.fog[33].server[0] droppedJobsQueue 26332
scalar FogSequentialForward.fog[33].server[0] droppedJobsTimout 0
scalar FogSequentialForward.fog[33].server[0] droppedJobsSLA 795106
scalar FogSequentialForward.fog[33].server[0] droppedJobsTotal 821438
scalar FogSequentialForward.fog[34].dispatcher localJobs 1319495
scalar FogSequentialForward.fog[34].dispatcher internalJobs 1624237
scalar FogSequentialForward.fog[34].dispatcher externalJobs 7610928
scalar FogSequentialForward.fog[34].dispatcher remoteJobs 7611864
scalar FogSequentialForward.fog[34].dispatcher probeQueries 0
scalar FogSequentialForward.fog[34].dispatcher probeAnswers 0
scalar FogSequentialForward.fog[34].dispatcher droppedJobsSLA 303806
scalar FogSequentialForward.fog[34].dispatcher jobs_class_1 9235165
scalar FogSequentialForward.fog[34].dispatcher remoteJobs_class_1 7611864
scalar FogSequentialForward.fog[34].dispatcher localJobs_class_1 1319495
scalar FogSequentialForward.fog[34].dispatcher droppedJobsSLA_class_1 303806
scalar FogSequentialForward.fog[34].server[0] rho 0.99999845027924
scalar FogSequentialForward.fog[34].server[0] congestionRatio 0
scalar FogSequentialForward.fog[34].server[0] totalJobs 1319495
scalar FogSequentialForward.fog[34].server[0] droppedJobsQueue 26516
scalar FogSequentialForward.fog[34].server[0] droppedJobsTimout 0
scalar FogSequentialForward.fog[34].server[0] droppedJobsSLA 796187
scalar FogSequentialForward.fog[34].server[0] droppedJobsTotal 822703
scalar FogSequentialForward.fog[35].dispatcher localJobs 1320158
scalar FogSequentialForward.fog[35].dispatcher internalJobs 1623848
scalar FogSequentialForward.fog[35].dispatcher externalJobs 7610214
scalar FogSequentialForward.fog[35].dispatcher remoteJobs 7610546
scalar FogSequentialForward.fog[35].dispatcher probeQueries 0
scalar FogSequentialForward.fog[35].dispatcher probeAnswers 0
scalar FogSequentialForward.fog[35].dispatcher droppedJobsSLA 303358
scalar FogSequentialForward.fog[35].dispatcher jobs_class_1 9234062
scalar FogSequentialForward.fog[35].dispatcher remoteJobs_class_1 7610546
scalar FogSequentialForward.fog[35].dispatcher localJobs_class_1 1320158
scalar FogSequentialForward.fog[35].dispatcher droppedJobsSLA_class_1 303358
scalar FogSequentialForward.fog[35].server[0] rho 0.99999976158142
scalar FogSequentialForward.fog[35].server[0] congestionRatio 0
scalar FogSequentialForward.fog[35].server[0] totalJobs 1320158
scalar FogSequentialForward.fog[35].server[0] droppedJobsQueue 26433
scalar FogSequentialForward.fog[35].server[0] droppedJobsTimout 0
scalar FogSequentialForward.fog[35].server[0] droppedJobsSLA 796191
scalar FogSequentialForward.fog[35].server[0] droppedJobsTotal 822624
scalar FogSequentialForward.fog[36].dispatcher localJobs 1319643
scalar FogSequentialForward.fog[36].dispatcher internalJobs 1621507
scalar FogSequentialForward.fog[36].dispatcher externalJobs 7610329
scalar FogSequentialForward.fog[36].dispatcher remoteJobs 7608038
scalar FogSequentialForward.fog[36].dispatcher probeQueries 0
scalar FogSequentialForward.fog[36].dispatcher probeAnswers 0
scalar FogSequentialForward.fog[36].dispatcher droppedJobsSLA 304155
scalar FogSequentialForward.fog[36].dispatcher jobs_class_1 9231836
scalar FogSequentialForward.fog[36].dispatcher remoteJobs_class_1 7608038
scalar FogSequentialForward.fog[36].dispatcher localJobs_class_1 1319643
scalar FogSequentialForward.fog[36].dispatcher droppedJobsSLA_class_1 304155
scalar FogSequentialForward.fog[36].server[0] rho 0.99999952316284
scalar FogSequentialForward.fog[36].server[0] congestionRatio 0
scalar FogSequentialForward.fog[36].server[0] totalJobs 1319643
scalar FogSequentialForward.fog[36].server[0] droppedJobsQueue 26480
scalar FogSequentialForward.fog[36].server[0] droppedJobsTimout 0
scalar FogSequentialForward.fog[36].server[0] droppedJobsSLA 795620
scalar FogSequentialForward.fog[36].server[0] droppedJobsTotal 822100
scalar FogSequentialForward.fog[37].dispatcher localJobs 1318979
scalar FogSequentialForward.fog[37].dispatcher internalJobs 1624499
scalar FogSequentialForward.fog[37].dispatcher externalJobs 7608473
scalar FogSequentialForward.fog[37].dispatcher remoteJobs 7611213
scalar FogSequentialForward.fog[37].dispatcher probeQueries 0
scalar FogSequentialForward.fog[37].dispatcher probeAnswers 0
scalar FogSequentialForward.fog[37].dispatcher droppedJobsSLA 302780
scalar FogSequentialForward.fog[37].dispatcher jobs_class_1 9232972
scalar FogSequentialForward.fog[37].dispatcher remoteJobs_class_1 7611213
scalar FogSequentialForward.fog[37].dispatcher localJobs_class_1 1318979
scalar FogSequentialForward.fog[37].dispatcher droppedJobsSLA_class_1 302780
scalar FogSequentialForward.fog[37].server[0] rho 0.99999940395355
scalar FogSequentialForward.fog[37].server[0] congestionRatio 0
scalar FogSequentialForward.fog[37].server[0] totalJobs 1318979
scalar FogSequentialForward.fog[37].server[0] droppedJobsQueue 26344
scalar FogSequentialForward.fog[37].server[0] droppedJobsTimout 0
scalar FogSequentialForward.fog[37].server[0] droppedJobsSLA 795343
scalar FogSequentialForward.fog[37].server[0] droppedJobsTotal 821687
scalar FogSequentialForward.fog[38].dispatcher localJobs 1320209
scalar FogSequentialForward.fog[38].dispatcher internalJobs 1620417
scalar FogSequentialForward.fog[38].dispatcher externalJobs 7608463
scalar FogSequentialForward.fog[38].dispatcher remoteJobs 7604770
scalar FogSequentialForward.fog[38].dispatcher probeQueries 0
scalar FogSequentialForward.fog[38].dispatcher probeAnswers 0
scalar FogSequentialForward.fog[38].dispatcher droppedJobsSLA 303901
scalar FogSequentialForward.fog[38].dispatcher jobs_class_1 9228880
scalar FogSequentialForward.fog[38].dispatcher remoteJobs_class_1 7604770
scalar FogSequentialForward.fog[38].dispatcher localJobs_class_1 1320209
scalar FogSequentialForward.fog[38].dispatcher droppedJobsSLA_class_1 303901
scalar FogSequentialForward.fog[38].server[0] rho 0.99999970197678
scalar FogSequentialForward.fog[38].server[0] congestionRatio 0
scalar FogSequentialForward.fog[38].server[0] totalJobs 1320209
scalar FogSequentialForward.fog[38].server[0] droppedJobsQueue 26520
scalar FogSequentialForward.fog[38].server[0] droppedJobsTimout 0
scalar FogSequentialForward.fog[38].server[0] droppedJobsSLA 796102
scalar FogSequentialForward.fog[38].server[0] droppedJobsTotal 822622
scalar FogSequentialForward.fog[39].dispatcher localJobs 1319707
scalar FogSequentialForward.fog[39].dispatcher internalJobs 1622379
scalar FogSequentialForward.fog[39].dispatcher externalJobs 7607251
scalar FogSequentialForward.fog[39].dispatcher remoteJobs 7607006
scalar FogSequentialForward.fog[39].dispatcher probeQueries 0
scalar FogSequentialForward.fog[39].dispatcher probeAnswers 0
scalar FogSequentialForward.fog[39].dispatcher droppedJobsSLA 302917
scalar FogSequentialForward.fog[39].dispatcher jobs_class_1 9229630
scalar FogSequentialForward.fog[39].dispatcher remoteJobs_class_1 7607006
scalar FogSequentialForward.fog[39].dispatcher localJobs_class_1 1319707
scalar FogSequentialForward.fog[39].dispatcher droppedJobsSLA_class_1 302917
scalar FogSequentialForward.fog[39].server[0] rho 0.99999982118607
scalar FogSequentialForward.fog[39].server[0] congestionRatio 0
scalar FogSequentialForward.fog[39].server[0] totalJobs 1319707
scalar FogSequentialForward.fog[39].server[0] droppedJobsQueue 26457
scalar FogSequentialForward.fog[39].server[0] droppedJobsTimout 0
scalar FogSequentialForward.fog[39].server[0] droppedJobsSLA 796390
scalar FogSequentialForward.fog[39].server[0] droppedJobsTotal 822847
scalar FogSequentialForward.fog[40].dispatcher localJobs 1320246
scalar FogSequentialForward.fog[40].dispatcher internalJobs 1621619
scalar FogSequentialForward.fog[40].dispatcher externalJobs 7606973
scalar FogSequentialForward.fog[40].dispatcher remoteJobs 7605558
scalar FogSequentialForward.fog[40].dispatcher probeQueries 0
scalar FogSequentialForward.fog[40].dispatcher probeAnswers 0
scalar FogSequentialForward.fog[40].dispatcher droppedJobsSLA 302788
scalar FogSequentialForward.fog[40].dispatcher jobs_class_1 9228592
scalar FogSequentialForward.fog[40].dispatcher remoteJobs_class_1 7605558
scalar FogSequentialForward.fog[40].dispatcher localJobs_class_1 1320246
scalar FogSequentialForward.fog[40].dispatcher droppedJobsSLA_class_1 302788
scalar FogSequentialForward.fog[40].server[0] rho 0.99999958276749
scalar FogSequentialForward.fog[40].server[0] congestionRatio 0
scalar FogSequentialForward.fog[40].server[0] totalJobs 1320246
scalar FogSequentialForward.fog[40].server[0] droppedJobsQueue 26330
scalar FogSequentialForward.fog[40].server[0] droppedJobsTimout 0
scalar FogSequentialForward.fog[40].server[0] droppedJobsSLA 796455
scalar FogSequentialForward.fog[40].server[0] droppedJobsTotal 822785
scalar FogSequentialForward.fog[41].dispatcher localJobs 1319719
scalar FogSequentialForward.fog[41].dispatcher internalJobs 1622765
scalar FogSequentialForward.fog[41].dispatcher externalJobs 7613068
scalar FogSequentialForward.fog[41].dispatcher remoteJobs 7611853
scalar FogSequentialForward.fog[41].dispatcher probeQueries 0
scalar FogSequentialForward.fog[41].dispatcher probeAnswers 0
scalar FogSequentialForward.fog[41].dispatcher droppedJobsSLA 304261
scalar FogSequentialForward.fog[41].dispatcher jobs_class_1 9235833
scalar FogSequentialForward.fog[41].dispatcher remoteJobs_class_1 7611853
scalar FogSequentialForward.fog[41].dispatcher localJobs_class_1 1319719
scalar FogSequentialForward.fog[41].dispatcher droppedJobsSLA_class_1 304261
scalar FogSequentialForward.fog[41].server[0] rho 1
scalar FogSequentialForward.fog[41].server[0] congestionRatio 0
scalar FogSequentialForward.fog[41].server[0] totalJobs 1319719
scalar FogSequentialForward.fog[41].server[0] droppedJobsQueue 26605
scalar FogSequentialForward.fog[41].server[0] droppedJobsTimout 0
scalar FogSequentialForward.fog[41].server[0] droppedJobsSLA 796773
scalar FogSequentialForward.fog[41].server[0] droppedJobsTotal 823378
scalar FogSequentialForward.fog[42].dispatcher localJobs 1319127
scalar FogSequentialForward.fog[42].dispatcher internalJobs 1622015
scalar FogSequentialForward.fog[42].dispatcher externalJobs 7611642
scalar FogSequentialForward.fog[42].dispatcher remoteJobs 7610573
scalar FogSequentialForward.fog[42].dispatcher probeQueries 0
scalar FogSequentialForward.fog[42].dispatcher probeAnswers 0
scalar FogSequentialForward.fog[42].dispatcher droppedJobsSLA 303957
scalar FogSequentialForward.fog[42].dispatcher jobs_class_1 9233657
scalar FogSequentialForward.fog[42].dispatcher remoteJobs_class_1 7610573
scalar FogSequentialForward.fog[42].dispatcher localJobs_class_1 1319127
scalar FogSequentialForward.fog[42].dispatcher droppedJobsSLA_class_1 303957
scalar FogSequentialForward.fog[42].server[0] rho 0.99999916553497
scalar FogSequentialForward.fog[42].server[0] congestionRatio 0
scalar FogSequentialForward.fog[42].server[0] totalJobs 1319127
scalar FogSequentialForward.fog[42].server[0] droppedJobsQueue 26237
scalar FogSequentialForward.fog[42].server[0] droppedJobsTimout 0
scalar FogSequentialForward.fog[42].server[0] droppedJobsSLA 795982
scalar FogSequentialForward.fog[42].server[0] droppedJobsTotal 822219
scalar FogSequentialForward.fog[43].dispatcher localJobs 1320267
scalar FogSequentialForward.fog[43].dispatcher internalJobs 1621326
scalar FogSequentialForward.fog[43].dispatcher externalJobs 7604803
scalar FogSequentialForward.fog[43].dispatcher remoteJobs 7602762
scalar FogSequentialForward.fog[43].dispatcher probeQueries 0
scalar FogSequentialForward.fog[43].dispatcher probeAnswers 0
scalar FogSequentialForward.fog[43].dispatcher droppedJobsSLA 303100
scalar FogSequentialForward.fog[43].dispatcher jobs_class_1 9226129
scalar FogSequentialForward.fog[43].dispatcher remoteJobs_class_1 7602762
scalar FogSequentialForward.fog[43].dispatcher localJobs_class_1 1320267
scalar FogSequentialForward.fog[43].dispatcher droppedJobsSLA_class_1 303100
scalar FogSequentialForward.fog[43].server[0] rho 0.99999952316284
scalar FogSequentialForward.fog[43].server[0] congestionRatio 0
scalar FogSequentialForward.fog[43].server[0] totalJobs 1320267
scalar FogSequentialForward.fog[43].server[0] droppedJobsQueue 26590
scalar FogSequentialForward.fog[43].server[0] droppedJobsTimout 0
scalar FogSequentialForward.fog[43].server[0] droppedJobsSLA 796578
scalar FogSequentialForward.fog[43].server[0] droppedJobsTotal 823168
scalar FogSequentialForward.fog[44].dispatcher localJobs 1319835
scalar FogSequentialForward.fog[44].dispatcher internalJobs 1623493
scalar FogSequentialForward.fog[44].dispatcher externalJobs 7607508
scalar FogSequentialForward.fog[44].dispatcher remoteJobs 7607569
scalar FogSequentialForward.fog[44].dispatcher probeQueries 0
scalar FogSequentialForward.fog[44].dispatcher probeAnswers 0
scalar FogSequentialForward.fog[44].dispatcher droppedJobsSLA 303597
scalar FogSequentialForward.fog[44].dispatcher jobs_class_1 9231001
scalar FogSequentialForward.fog[44].dispatcher remoteJobs_class_1 7607569
scalar FogSequentialForward.fog[44].dispatcher localJobs_class_1 1319835
scalar FogSequentialForward.fog[44].dispatcher droppedJobsSLA_class_1 303597
scalar FogSequentialForward.fog[44].server[0] rho 0.99999988079071
scalar FogSequentialForward.fog[44].server[0] congestionRatio 0
scalar FogSequentialForward.fog[44].server[0] totalJobs 1319835
scalar FogSequentialForward.fog[44].server[0] droppedJobsQueue 26274
scalar FogSequentialForward.fog[44].server[0] droppedJobsTimout 0
scalar FogSequentialForward.fog[44].server[0] droppedJobsSLA 795807
scalar FogSequentialForward.fog[44].server[0] droppedJobsTotal 822081
scalar FogSequentialForward.fog[45].dispatcher localJobs 1320191
scalar FogSequentialForward.fog[45].dispatcher internalJobs 1621399
scalar FogSequentialForward.fog[45].dispatcher externalJobs 7608594
scalar FogSequentialForward.fog[45].dispatcher remoteJobs 7606836
scalar FogSequentialForward.fog[45].dispatcher probeQueries 0
scalar FogSequentialForward.fog[45].dispatcher probeAnswers 0
scalar FogSequentialForward.fog[45].dispatcher droppedJobsSLA 302966
scalar FogSequentialForward.fog[45].dispatcher jobs_class_1 9229993
scalar FogSequentialForward.fog[45].dispatcher remoteJobs_class_1 7606836
scalar FogSequentialForward.fog[45].dispatcher localJobs_class_1 1320191
scalar FogSequentialForward.fog[45].dispatcher droppedJobsSLA_class_1 302966
scalar FogSequentialForward.fog[45].server[0] rho 0.99999940395355
scalar FogSequentialForward.fog[45].server[0] congestionRatio 0
scalar FogSequentialForward.fog[45].server[0] totalJobs 1320191
scalar FogSequentialForward.fog[45].server[0] droppedJobsQueue 26367
scalar FogSequentialForward.fog[45].server[0] droppedJobsTimout 0
scalar FogSequentialForward.fog[45].server[0] droppedJobsSLA 796161
scalar FogSequentialForward.fog[45].server[0] droppedJobsTotal 822528
scalar FogSequentialForward.fog[46].dispatcher localJobs 1320358
scalar FogSequentialForward.fog[46].dispatcher internalJobs 1622769
scalar FogSequentialForward.fog[46].dispatcher externalJobs 7614006
scalar FogSequentialForward.fog[46].dispatcher remoteJobs 7613613
scalar FogSequentialForward.fog[46].dispatcher probeQueries 0
scalar FogSequentialForward.fog[46].dispatcher probeAnswers 0
scalar FogSequentialForward.fog[46].dispatcher droppedJobsSLA 302804
scalar FogSequentialForward.fog[46].dispatcher jobs_class_1 9236775
scalar FogSequentialForward.fog[46].dispatcher remoteJobs_class_1 7613613
scalar FogSequentialForward.fog[46].dispatcher localJobs_class_1 1320358
scalar FogSequentialForward.fog[46].dispatcher droppedJobsSLA_class_1 302804
scalar FogSequentialForward.fog[46].server[0] rho 0.9999988079071
scalar FogSequentialForward.fog[46].server[0] congestionRatio 0
scalar FogSequentialForward.fog[46].server[0] totalJobs 1320358
scalar FogSequentialForward.fog[46].server[0] droppedJobsQueue 26360
scalar FogSequentialForward.fog[46].server[0] droppedJobsTimout 0
scalar FogSequentialForward.fog[46].server[0] droppedJobsSLA 796461
scalar FogSequentialForward.fog[46].server[0] droppedJobsTotal 822821
scalar FogSequentialForward.fog[47].dispatcher localJobs 1319194
scalar FogSequentialForward.fog[47].dispatcher internalJobs 1624054
scalar FogSequentialForward.fog[47].dispatcher externalJobs 7607229
scalar FogSequentialForward.fog[47].dispatcher remoteJobs 7608802
scalar FogSequentialForward.fog[47].dispatcher probeQueries 0
scalar FogSequentialForward.fog[47].dispatcher probeAnswers 0
scalar FogSequentialForward.fog[47].dispatcher droppedJobsSLA 303287
scalar FogSequentialForward.fog[47].dispatcher jobs_class_1 9231283
scalar FogSequentialForward.fog[47].dispatcher remoteJobs_class_1 7608802
scalar FogSequentialForward.fog[47].dispatcher localJobs_class_1 1319194
scalar FogSequentialForward.fog[47].dispatcher droppedJobsSLA_class_1 303287
scalar FogSequentialForward.fog[47].server[0] rho 0.99999910593033
scalar FogSequentialForward.fog[47].server[0] congestionRatio 0
scalar FogSequentialForward.fog[47].server[0] totalJobs 1319194
scalar FogSequentialForward.fog[47].server[0] droppedJobsQueue 26399
scalar FogSequentialForward.fog[47].server[0] droppedJobsTimout 0
scalar FogSequentialForward.fog[47].server[0] droppedJobsSLA 795740
scalar FogSequentialForward.fog[47].server[0] droppedJobsTotal 822139
scalar FogSequentialForward.fog[48].dispatcher localJobs 1318475
scalar FogSequentialForward.fog[48].dispatcher internalJobs 1621386
scalar FogSequentialForward.fog[48].dispatcher externalJobs 7606981
scalar FogSequentialForward.fog[48].dispatcher remoteJobs 7606827
scalar FogSequentialForward.fog[48].dispatcher probeQueries 0
scalar FogSequentialForward.fog[48].dispatcher probeAnswers 0
scalar FogSequentialForward.fog[48].dispatcher droppedJobsSLA 303065
scalar FogSequentialForward.fog[48].dispatcher jobs_class_1 9228367
scalar FogSequentialForward.fog[48].dispatcher remoteJobs_class_1 7606827
scalar FogSequentialForward.fog[48].dispatcher localJobs_class_1 1318475
scalar FogSequentialForward.fog[48].dispatcher droppedJobsSLA_class_1 303065
scalar FogSequentialForward.fog[48].server[0] rho 0.9999994635582
scalar FogSequentialForward.fog[48].server[0] congestionRatio 0
scalar FogSequentialForward.fog[48].server[0] totalJobs 1318475
scalar FogSequentialForward.fog[48].server[0] droppedJobsQueue 26217
scalar FogSequentialForward.fog[48].server[0] droppedJobsTimout 0
scalar FogSequentialForward.fog[48].server[0] droppedJobsSLA 794958
scalar FogSequentialForward.fog[48].server[0] droppedJobsTotal 821175
scalar FogSequentialForward.fog[49].dispatcher localJobs 1318645
scalar FogSequentialForward.fog[49].dispatcher internalJobs 1621776
scalar FogSequentialForward.fog[49].dispatcher externalJobs 7606773
scalar FogSequentialForward.fog[49].dispatcher remoteJobs 7606466
scalar FogSequentialForward.fog[49].dispatcher probeQueries 0
scalar FogSequentialForward.fog[49].dispatcher probeAnswers 0
scalar FogSequentialForward.fog[49].dispatcher droppedJobsSLA 303438
scalar FogSequentialForward.fog[49].dispatcher jobs_class_1 9228549
scalar FogSequentialForward.fog[49].dispatcher remoteJobs_class_1 7606466
scalar FogSequentialForward.fog[49].dispatcher localJobs_class_1 1318645
scalar FogSequentialForward.fog[49].dispatcher droppedJobsSLA_class_1 303438
scalar FogSequentialForward.fog[49].server[0] rho 0.99999928474426
scalar FogSequentialForward.fog[49].server[0] congestionRatio 0
scalar FogSequentialForward.fog[49].server[0] totalJobs 1318645
scalar FogSequentialForward.fog[49].server[0] droppedJobsQueue 26199
scalar FogSequentialForward.fog[49].server[0] droppedJobsTimout 0
scalar FogSequentialForward.fog[49].server[0] droppedJobsSLA 795190
scalar FogSequentialForward.fog[49].server[0] droppedJobsTotal 821389
scalar FogSequentialForward.fog[50].dispatcher localJobs 1319756
scalar FogSequentialForward.fog[50].dispatcher internalJobs 1623373
scalar FogSequentialForward.fog[50].dispatcher externalJobs 7605963
scalar FogSequentialForward.fog[50].dispatcher remoteJobs 7605989
scalar FogSequentialForward.fog[50].dispatcher probeQueries 0
scalar FogSequentialForward.fog[50].dispatcher probeAnswers 0
scalar FogSequentialForward.fog[50].dispatcher droppedJobsSLA 303591
scalar FogSequentialForward.fog[50].dispatcher jobs_class_1 9229336
scalar FogSequentialForward.fog[50].dispatcher remoteJobs_class_1 7605989
scalar FogSequentialForward.fog[50].dispatcher localJobs_class_1 1319756
scalar FogSequentialForward.fog[50].dispatcher droppedJobsSLA_class_1 303591
scalar FogSequentialForward.fog[50].server[0] rho 0.99999976158142
scalar FogSequentialForward.fog[50].server[0] congestionRatio 0
scalar FogSequentialForward.fog[50].server[0] totalJobs 1319756
scalar FogSequentialForward.fog[50].server[0] droppedJobsQueue 26338
scalar FogSequentialForward.fog[50].server[0] droppedJobsTimout 0
scalar FogSequentialForward.fog[50].server[0] droppedJobsSLA 795992
scalar FogSequentialForward.fog[50].server[0] droppedJobsTotal 822330
scalar FogSequentialForward.fog[51].dispatcher localJobs 1319707
scalar FogSequentialForward.fog[51].dispatcher internalJobs 1622161
scalar FogSequentialForward.fog[51].dispatcher externalJobs 7604898
scalar FogSequentialForward.fog[51].dispatcher remoteJobs 7604169
scalar FogSequentialForward.fog[51].dispatcher probeQueries 0
scalar FogSequentialForward.fog[51].dispatcher probeAnswers 0
scalar FogSequentialForward.fog[51].dispatcher droppedJobsSLA 303183
scalar FogSequentialForward.fog[51].dispatcher jobs_class_1 9227059
scalar FogSequentialForward.fog[51].dispatcher remoteJobs_class_1 7604169
scalar FogSequentialForward.fog[51].dispatcher localJobs_class_1 1319707
scalar FogSequentialForward.fog[51].dispatcher droppedJobsSLA_class_1 303183
scalar FogSequentialForward.fog[51].server[0] rho 0.99999952316284
scalar FogSequentialForward.fog[51].server[0] congestionRatio 0
scalar FogSequentialForward.fog[51].server[0] totalJobs 1319707
scalar FogSequentialForward.fog[51].server[0] droppedJobsQueue 26351
scalar FogSequentialForward.fog[51].server[0] droppedJobsTimout 0
scalar FogSequentialForward.fog[51].server[0] droppedJobsSLA 795578
scalar FogSequentialForward.fog[51].server[0] droppedJobsTotal 821929
scalar FogSequentialForward.fog[52].dispatcher localJobs 1318518
scalar FogSequentialForward.fog[52].dispatcher internalJobs 1624127
scalar FogSequentialForward.fog[52].dispatcher externalJobs 7608418
scalar FogSequentialForward.fog[52].dispatcher remoteJobs 7610967
scalar FogSequentialForward.fog[52].dispatcher probeQueries 0
scalar FogSequentialForward.fog[52].dispatcher probeAnswers 0
scalar FogSequentialForward.fog[52].dispatcher droppedJobsSLA 303060
scalar FogSequentialForward.fog[52].dispatcher jobs_class_1 9232545
scalar FogSequentialForward.fog[52].dispatcher remoteJobs_class_1 7610967
scalar FogSequentialForward.fog[52].dispatcher localJobs_class_1 1318518
scalar FogSequentialForward.fog[52].dispatcher droppedJobsSLA_class_1 303060
scalar FogSequentialForward.fog[52].server[0] rho 0.99999988079071
scalar FogSequentialForward.fog[52].server[0] congestionRatio 0
scalar FogSequentialForward.fog[52].server[0] totalJobs 1318518
scalar FogSequentialForward.fog[52].server[0] droppedJobsQueue 26191
scalar FogSequentialForward.fog[52].server[0] droppedJobsTimout 0
scalar FogSequentialForward.fog[52].server[0] droppedJobsSLA 795330
scalar FogSequentialForward.fog[52].server[0] droppedJobsTotal 821521
scalar FogSequentialForward.fog[53].dispatcher localJobs 1319017
scalar FogSequentialForward.fog[53].dispatcher internalJobs 1623437
scalar FogSequentialForward.fog[53].dispatcher externalJobs 7613638
scalar FogSequentialForward.fog[53].dispatcher remoteJobs 7614817
scalar FogSequentialForward.fog[53].dispatcher probeQueries 0
scalar FogSequentialForward.fog[53].dispatcher probeAnswers 0
scalar FogSequentialForward.fog[53].dispatcher droppedJobsSLA 303241
scalar FogSequentialForward.fog[53].dispatcher jobs_class_1 9237075
scalar FogSequentialForward.fog[53].dispatcher remoteJobs_class_1 7614817
scalar FogSequentialForward.fog[53].dispatcher localJobs_class_1 1319017
scalar FogSequentialForward.fog[53].dispatcher droppedJobsSLA_class_1 303241
scalar FogSequentialForward.fog[53].server[0] rho 0.99999964237213
scalar FogSequentialForward.fog[53].server[0] congestionRatio 0
scalar FogSequentialForward.fog[53].server[0] totalJobs 1319017
scalar FogSequentialForward.fog[53].server[0] droppedJobsQueue 26350
scalar FogSequentialForward.fog[53].server[0] droppedJobsTimout 0
scalar FogSequentialForward.fog[53].server[0] droppedJobsSLA 795220
scalar FogSequentialForward.fog[53].server[0] droppedJobsTotal 821570
scalar FogSequentialForward.fog[54].dispatcher localJobs 1319691
scalar FogSequentialForward.fog[54].dispatcher internalJobs 1623000
scalar FogSequentialForward.fog[54].dispatcher externalJobs 7604967
scalar FogSequentialForward.fog[54].dispatcher remoteJobs 7605839
scalar FogSequentialForward.fog[54].dispatcher probeQueries 0
scalar FogSequentialForward.fog[54].dispatcher probeAnswers 0
scalar FogSequentialForward.fog[54].dispatcher droppedJobsSLA 302437
scalar FogSequentialForward.fog[54].dispatcher jobs_class_1 9227967
scalar FogSequentialForward.fog[54].dispatcher remoteJobs_class_1 7605839
scalar FogSequentialForward.fog[54].dispatcher localJobs_class_1 1319691
scalar FogSequentialForward.fog[54].dispatcher droppedJobsSLA_class_1 302437
scalar FogSequentialForward.fog[54].server[0] rho 0.99999958276749
scalar FogSequentialForward.fog[54].server[0] congestionRatio 0
scalar FogSequentialForward.fog[54].server[0] totalJobs 1319691
scalar FogSequentialForward.fog[54].server[0] droppedJobsQueue 26345
scalar FogSequentialForward.fog[54].server[0] droppedJobsTimout 0
scalar FogSequentialForward.fog[54].server[0] droppedJobsSLA 795941
scalar FogSequentialForward.fog[54].server[0] droppedJobsTotal 822286
scalar FogSequentialForward.fog[55].dispatcher localJobs 1319820
scalar FogSequentialForward.fog[55].dispatcher internalJobs 1625138
scalar FogSequentialForward.fog[55].dispatcher externalJobs 7612319
scalar FogSequentialForward.fog[55].dispatcher remoteJobs 7614323
scalar FogSequentialForward.fog[55].dispatcher probeQueries 0
scalar FogSequentialForward.fog[55].dispatcher probeAnswers 0
scalar FogSequentialForward.fog[55].dispatcher droppedJobsSLA 303314
scalar FogSequentialForward.fog[55].dispatcher jobs_class_1 9237457
scalar FogSequentialForward.fog[55].dispatcher remoteJobs_class_1 7614323
scalar FogSequentialForward.fog[55].dispatcher localJobs_class_1 1319820
scalar FogSequentialForward.fog[55].dispatcher droppedJobsSLA_class_1 303314
scalar FogSequentialForward.fog[55].server[0] rho 0.99999934434891
scalar FogSequentialForward.fog[55].server[0] congestionRatio 0
scalar FogSequentialForward.fog[55].server[0] totalJobs 1319820
scalar FogSequentialForward.fog[55].server[0] droppedJobsQueue 26542
scalar FogSequentialForward.fog[55].server[0] droppedJobsTimout 0
scalar FogSequentialForward.fog[55].server[0] droppedJobsSLA 796305
scalar FogSequentialForward.fog[55].server[0] droppedJobsTotal 822847
scalar FogSequentialForward.fog[56].dispatcher localJobs 1317907
scalar FogSequentialForward.fog[56].dispatcher internalJobs 1622519
scalar FogSequentialForward.fog[56].dispatcher externalJobs 7606451
scalar FogSequentialForward.fog[56].dispatcher remoteJobs 7607994
scalar FogSequentialForward.fog[56].dispatcher probeQueries 0
scalar FogSequentialForward.fog[56].dispatcher probeAnswers 0
scalar FogSequentialForward.fog[56].dispatcher droppedJobsSLA 303069
scalar FogSequentialForward.fog[56].dispatcher jobs_class_1 9228970
scalar FogSequentialForward.fog[56].dispatcher remoteJobs_class_1 7607994
scalar FogSequentialForward.fog[56].dispatcher localJobs_class_1 1317907
scalar FogSequentialForward.fog[56].dispatcher droppedJobsSLA_class_1 303069
scalar FogSequentialForward.fog[56].server[0] rho 0.99999988079071
scalar FogSequentialForward.fog[56].server[0] congestionRatio 0
scalar FogSequentialForward.fog[56].server[0] totalJobs 1317907
scalar FogSequentialForward.fog[56].server[0] droppedJobsQueue 26167
scalar FogSequentialForward.fog[56].server[0] droppedJobsTimout 0
scalar FogSequentialForward.fog[56].server[0] droppedJobsSLA 793547
scalar FogSequentialForward.fog[56].server[0] droppedJobsTotal 819714
scalar FogSequentialForward.fog[57].dispatcher localJobs 1319687
scalar FogSequentialForward.fog[57].dispatcher internalJobs 1623280
scalar FogSequentialForward.fog[57].dispatcher externalJobs 7613202
scalar FogSequentialForward.fog[57].dispatcher remoteJobs 7612063
scalar FogSequentialForward.fog[57].dispatcher probeQueries 0
scalar FogSequentialForward.fog[57].dispatcher probeAnswers 0
scalar FogSequentialForward.fog[57].dispatcher droppedJobsSLA 304732
scalar FogSequentialForward.fog[57].dispatcher jobs_class_1 9236482
scalar FogSequentialForward.fog[57].dispatcher remoteJobs_class_1 7612063
scalar FogSequentialForward.fog[57].dispatcher localJobs_class_1 1319687
scalar FogSequentialForward.fog[57].dispatcher droppedJobsSLA_class_1 304732
scalar FogSequentialForward.fog[57].server[0] rho 0.99999916553497
scalar FogSequentialForward.fog[57].server[0] congestionRatio 0
scalar FogSequentialForward.fog[57].server[0] totalJobs 1319687
scalar FogSequentialForward.fog[57].server[0] droppedJobsQueue 26562
scalar FogSequentialForward.fog[57].server[0] droppedJobsTimout 0
scalar FogSequentialForward.fog[57].server[0] droppedJobsSLA 795957
scalar FogSequentialForward.fog[57].server[0] droppedJobsTotal 822519
scalar FogSequentialForward.fog[58].dispatcher localJobs 1319708
scalar FogSequentialForward.fog[58].dispatcher internalJobs 1623431
scalar FogSequentialForward.fog[58].dispatcher externalJobs 7607961
scalar FogSequentialForward.fog[58].dispatcher remoteJobs 7608503
scalar FogSequentialForward.fog[58].dispatcher probeQueries 0
scalar FogSequentialForward.fog[58].dispatcher probeAnswers 0
scalar FogSequentialForward.fog[58].dispatcher droppedJobsSLA 303181
scalar FogSequentialForward.fog[58].dispatcher jobs_class_1 9231392
scalar FogSequentialForward.fog[58].dispatcher remoteJobs_class_1 7608503
scalar FogSequentialForward.fog[58].dispatcher localJobs_class_1 1319708
scalar FogSequentialForward.fog[58].dispatcher droppedJobsSLA_class_1 303181
scalar FogSequentialForward.fog[58].server[0] rho 0.99999928474426
scalar FogSequentialForward.fog[58].server[0] congestionRatio 0
scalar FogSequentialForward.fog[58].server[0] totalJobs 1319708
scalar FogSequentialForward.fog[58].server[0] droppedJobsQueue 26431
scalar FogSequentialForward.fog[58].server[0] droppedJobsTimout 0
scalar FogSequentialForward.fog[58].server[0] droppedJobsSLA 796195
scalar FogSequentialForward.fog[58].server[0] droppedJobsTotal 822626
scalar FogSequentialForward.fog[59].dispatcher localJobs 1318732
scalar FogSequentialForward.fog[59].dispatcher internalJobs 1622871
scalar FogSequentialForward.fog[59].dispatcher externalJobs 7607207
scalar FogSequentialForward.fog[59].dispatcher remoteJobs 7607678
scalar FogSequentialForward.fog[59].dispatcher probeQueries 0
scalar FogSequentialForward.fog[59].dispatcher probeAnswers 0
scalar FogSequentialForward.fog[59].dispatcher droppedJobsSLA 303668
scalar FogSequentialForward.fog[59].dispatcher jobs_class_1 9230078
scalar FogSequentialForward.fog[59].dispatcher remoteJobs_class_1 7607678
scalar FogSequentialForward.fog[59].dispatcher localJobs_class_1 1318732
scalar FogSequentialForward.fog[59].dispatcher droppedJobsSLA_class_1 303668
scalar FogSequentialForward.fog[59].server[0] rho 0.99999916553497
scalar FogSequentialForward.fog[59].server[0] congestionRatio 0
scalar FogSequentialForward.fog[59].server[0] totalJobs 1318732
scalar FogSequentialForward.fog[59].server[0] droppedJobsQueue 26299
scalar FogSequentialForward.fog[59].server[0] droppedJobsTimout 0
scalar FogSequentialForward.fog[59].server[0] droppedJobsSLA 794646
scalar FogSequentialForward.fog[59].server[0] droppedJobsTotal 820945
scalar FogSequentialForward.fog[60].dispatcher localJobs 1320566
scalar FogSequentialForward.fog[60].dispatcher internalJobs 1624027
scalar FogSequentialForward.fog[60].dispatcher externalJobs 7607315
scalar FogSequentialForward.fog[60].dispatcher remoteJobs 7607994
scalar FogSequentialForward.fog[60].dispatcher probeQueries 0
scalar FogSequentialForward.fog[60].dispatcher probeAnswers 0
scalar FogSequentialForward.fog[60].dispatcher droppedJobsSLA 302782
scalar FogSequentialForward.fog[60].dispatcher jobs_class_1 9231342
scalar FogSequentialForward.fog[60].dispatcher remoteJobs_class_1 7607994
scalar FogSequentialForward.fog[60].dispatcher localJobs_class_1 1320566
scalar FogSequentialForward.fog[60].dispatcher droppedJobsSLA_class_1 302782
scalar FogSequentialForward.fog[60].server[0] rho 0.99999934434891
scalar FogSequentialForward.fog[60].server[0] congestionRatio 0
scalar FogSequentialForward.fog[60].server[0] totalJobs 1320566
scalar FogSequentialForward.fog[60].server[0] droppedJobsQueue 26456
scalar FogSequentialForward.fog[60].server[0] droppedJobsTimout 0
scalar FogSequentialForward.fog[60].server[0] droppedJobsSLA 796450
scalar FogSequentialForward.fog[60].server[0] droppedJobsTotal 822906
scalar FogSequentialForward.fog[61].dispatcher localJobs 1320709
scalar FogSequentialForward.fog[61].dispatcher internalJobs 1623282
scalar FogSequentialForward.fog[61].dispatcher externalJobs 7609535
scalar FogSequentialForward.fog[61].dispatcher remoteJobs 7608209
scalar FogSequentialForward.fog[61].dispatcher probeQueries 0
scalar FogSequentialForward.fog[61].dispatcher probeAnswers 0
scalar FogSequentialForward.fog[61].dispatcher droppedJobsSLA 303899
scalar FogSequentialForward.fog[61].dispatcher jobs_class_1 9232817
scalar FogSequentialForward.fog[61].dispatcher remoteJobs_class_1 7608209
scalar FogSequentialForward.fog[61].dispatcher localJobs_class_1 1320709
scalar FogSequentialForward.fog[61].dispatcher droppedJobsSLA_class_1 303899
scalar FogSequentialForward.fog[61].server[0] rho 0.99999928474426
scalar FogSequentialForward.fog[61].server[0] congestionRatio 0
scalar FogSequentialForward.fog[61].server[0] totalJobs 1320709
scalar FogSequentialForward.fog[61].server[0] droppedJobsQueue 26449
scalar FogSequentialForward.fog[61].server[0] droppedJobsTimout 0
scalar FogSequentialForward.fog[61].server[0] droppedJobsSLA 795894
scalar FogSequentialForward.fog[61].server[0] droppedJobsTotal 822343
scalar FogSequentialForward.fog[62].dispatcher localJobs 1320117
scalar FogSequentialForward.fog[62].dispatcher internalJobs 1623862
scalar FogSequentialForward.fog[62].dispatcher externalJobs 7608891
scalar FogSequentialForward.fog[62].dispatcher remoteJobs 7609905
scalar FogSequentialForward.fog[62].dispatcher probeQueries 0
scalar FogSequentialForward.fog[62].dispatcher probeAnswers 0
scalar FogSequentialForward.fog[62].dispatcher droppedJobsSLA 302731
scalar FogSequentialForward.fog[62].dispatcher jobs_class_1 9232753
scalar FogSequentialForward.fog[62].dispatcher remoteJobs_class_1 7609905
scalar FogSequentialForward.fog[62].dispatcher localJobs_class_1 1320117
scalar FogSequentialForward.fog[62].dispatcher droppedJobsSLA_class_1 302731
scalar FogSequentialForward.fog[62].server[0] rho 0.99999976158142
scalar FogSequentialForward.fog[62].server[0] congestionRatio 0
scalar FogSequentialForward.fog[62].server[0] totalJobs 1320117
scalar FogSequentialForward.fog[62].server[0] droppedJobsQueue 26446
scalar FogSequentialForward.fog[62].server[0] droppedJobsTimout 0
scalar FogSequentialForward.fog[62].server[0] droppedJobsSLA 795697
scalar FogSequentialForward.fog[62].server[0] droppedJobsTotal 822143
scalar FogSequentialForward.fog[63].dispatcher localJobs 1320575
scalar FogSequentialForward.fog[63].dispatcher internalJobs 1623696
scalar FogSequentialForward.fog[63].dispatcher externalJobs 7607808
scalar FogSequentialForward.fog[63].dispatcher remoteJobs 7608305
scalar FogSequentialForward.fog[63].dispatcher probeQueries 0
scalar FogSequentialForward.fog[63].dispatcher probeAnswers 0
scalar FogSequentialForward.fog[63].dispatcher droppedJobsSLA 302624
scalar FogSequentialForward.fog[63].dispatcher jobs_class_1 9231504
scalar FogSequentialForward.fog[63].dispatcher remoteJobs_class_1 7608305
scalar FogSequentialForward.fog[63].dispatcher localJobs_class_1 1320575
scalar FogSequentialForward.fog[63].dispatcher droppedJobsSLA_class_1 302624
scalar FogSequentialForward.fog[63].server[0] rho 0.99999952316284
scalar FogSequentialForward.fog[63].server[0] congestionRatio 0
scalar FogSequentialForward.fog[63].server[0] totalJobs 1320575
scalar FogSequentialForward.fog[63].server[0] droppedJobsQueue 26358
scalar FogSequentialForward.fog[63].server[0] droppedJobsTimout 0
scalar FogSequentialForward.fog[63].server[0] droppedJobsSLA 797030
scalar FogSequentialForward.fog[63].server[0] droppedJobsTotal 823388
scalar FogSequentialForward.fog[64].dispatcher localJobs 1318744
scalar FogSequentialForward.fog[64].dispatcher internalJobs 1621798
scalar FogSequentialForward.fog[64].dispatcher externalJobs 7611246
scalar FogSequentialForward.fog[64].dispatcher remoteJobs 7609814
scalar FogSequentialForward.fog[64].dispatcher probeQueries 0
scalar FogSequentialForward.fog[64].dispatcher probeAnswers 0
scalar FogSequentialForward.fog[64].dispatcher droppedJobsSLA 304486
scalar FogSequentialForward.fog[64].dispatcher jobs_class_1 9233044
scalar FogSequentialForward.fog[64].dispatcher remoteJobs_class_1 7609814
scalar FogSequentialForward.fog[64].dispatcher localJobs_class_1 1318744
scalar FogSequentialForward.fog[64].dispatcher droppedJobsSLA_class_1 304486
scalar FogSequentialForward.fog[64].server[0] rho 0.99999970197678
[...]
scalar FogSequentialForward.fog[84].dispatcher droppedJobsSLA_class_1 303717
scalar FogSequentialForward.fog[84].server[0] rho 0.99999916553497
scalar FogSequentialForward.fog[84].server[0] congestionRatio 0
scalar FogSequentialForward.fog[84].server[0] totalJobs 1319369
scalar FogSequentialForward.fog[84].server[0] droppedJobsQueue 26385
scalar FogSequentialForward.fog[84].server[0] droppedJobsTimout 0
scalar FogSequentialForward.fog[84].server[0] droppedJobsSLA 795635
scalar FogSequentialForward.fog[84].server[0] droppedJobsTotal 822020
scalar FogSequentialForward.fog[85].dispatcher localJobs 1320158
scalar FogSequentialForward.fog[85].dispatcher internalJobs 1621955
scalar FogSequentialForward.fog[85].dispatcher externalJobs 7616489
scalar FogSequentialForward.fog[85].dispatcher remoteJobs 7614115
scalar FogSequentialForward.fog[85].dispatcher probeQueries 0
scalar FogSequentialForward.fog[85].dispatcher probeAnswers 0
scalar FogSequentialForward.fog[85].dispatcher droppedJobsSLA 304171
scalar FogSequentialForward.fog[85].dispatcher jobs_class_1 9238444
scalar FogSequentialForward.fog[85].dispatcher remoteJobs_class_1 7614115
scalar FogSequentialForward.fog[85].dispatcher localJobs_class_1 1320158
scalar FogSequentialForward.fog[85].dispatcher droppedJobsSLA_class_1 304171
scalar FogSequentialForward.fog[85].server[0] rho 0.99999845027924
scalar FogSequentialForward.fog[85].server[0] congestionRatio 0
scalar FogSequentialForward.fog[85].server[0] totalJobs 1320158
scalar FogSequentialForward.fog[85].server[0] droppedJobsQueue 26584
scalar FogSequentialForward.fog[85].server[0] droppedJobsTimout 0
scalar FogSequentialForward.fog[85].server[0] droppedJobsSLA 796589
scalar FogSequentialForward.fog[85].server[0] droppedJobsTotal 823173
scalar FogSequentialForward.fog[86].dispatcher localJobs 1319661
scalar FogSequentialForward.fog[86].dispatcher internalJobs 1623518
scalar FogSequentialForward.fog[86].dispatcher externalJobs 7605033
scalar FogSequentialForward.fog[86].dispatcher remoteJobs 7604844
scalar FogSequentialForward.fog[86].dispatcher probeQueries 0
scalar FogSequentialForward.fog[86].dispatcher probeAnswers 0
scalar FogSequentialForward.fog[86].dispatcher droppedJobsSLA 304046
scalar FogSequentialForward.fog[86].dispatcher jobs_class_1 9228551
scalar FogSequentialForward.fog[86].dispatcher remoteJobs_class_1 7604844
scalar FogSequentialForward.fog[86].dispatcher localJobs_class_1 1319661
scalar FogSequentialForward.fog[86].dispatcher droppedJobsSLA_class_1 304046
scalar FogSequentialForward.fog[86].server[0] rho 0.99999904632568
scalar FogSequentialForward.fog[86].server[0] congestionRatio 0
scalar FogSequentialForward.fog[86].server[0] totalJobs 1319661
scalar FogSequentialForward.fog[86].server[0] droppedJobsQueue 26197
scalar FogSequentialForward.fog[86].server[0] droppedJobsTimout 0
scalar FogSequentialForward.fog[86].server[0] droppedJobsSLA 795813
scalar FogSequentialForward.fog[86].server[0] droppedJobsTotal 822010
scalar FogSequentialForward.fog[87].dispatcher localJobs 1319836
scalar FogSequentialForward.fog[87].dispatcher internalJobs 1621706
scalar FogSequentialForward.fog[87].dispatcher externalJobs 7610628
scalar FogSequentialForward.fog[87].dispatcher remoteJobs 7607971
scalar FogSequentialForward.fog[87].dispatcher probeQueries 0
scalar FogSequentialForward.fog[87].dispatcher probeAnswers 0
scalar FogSequentialForward.fog[87].dispatcher droppedJobsSLA 304527
scalar FogSequentialForward.fog[87].dispatcher jobs_class_1 9232334
scalar FogSequentialForward.fog[87].dispatcher remoteJobs_class_1 7607971
scalar FogSequentialForward.fog[87].dispatcher localJobs_class_1 1319836
scalar FogSequentialForward.fog[87].dispatcher droppedJobsSLA_class_1 304527
scalar FogSequentialForward.fog[87].server[0] rho 0.99999856948853
scalar FogSequentialForward.fog[87].server[0] congestionRatio 0
scalar FogSequentialForward.fog[87].server[0] totalJobs 1319836
scalar FogSequentialForward.fog[87].server[0] droppedJobsQueue 26443
scalar FogSequentialForward.fog[87].server[0] droppedJobsTimout 0
scalar FogSequentialForward.fog[87].server[0] droppedJobsSLA 795740
scalar FogSequentialForward.fog[87].server[0] droppedJobsTotal 822183
scalar FogSequentialForward.fog[88].dispatcher localJobs 1319057
scalar FogSequentialForward.fog[88].dispatcher internalJobs 1622199
scalar FogSequentialForward.fog[88].dispatcher externalJobs 7611377
scalar FogSequentialForward.fog[88].dispatcher remoteJobs 7610886
scalar FogSequentialForward.fog[88].dispatcher probeQueries 0
scalar FogSequentialForward.fog[88].dispatcher probeAnswers 0
scalar FogSequentialForward.fog[88].dispatcher droppedJobsSLA 303633
scalar FogSequentialForward.fog[88].dispatcher jobs_class_1 9233576
scalar FogSequentialForward.fog[88].dispatcher remoteJobs_class_1 7610886
scalar FogSequentialForward.fog[88].dispatcher localJobs_class_1 1319057
scalar FogSequentialForward.fog[88].dispatcher droppedJobsSLA_class_1 303633
scalar FogSequentialForward.fog[88].server[0] rho 0.99999916553497
scalar FogSequentialForward.fog[88].server[0] congestionRatio 0
scalar FogSequentialForward.fog[88].server[0] totalJobs 1319057
scalar FogSequentialForward.fog[88].server[0] droppedJobsQueue 26379
scalar FogSequentialForward.fog[88].server[0] droppedJobsTimout 0
scalar FogSequentialForward.fog[88].server[0] droppedJobsSLA 795424
scalar FogSequentialForward.fog[88].server[0] droppedJobsTotal 821803
scalar FogSequentialForward.fog[89].dispatcher localJobs 1319684
scalar FogSequentialForward.fog[89].dispatcher internalJobs 1623459
scalar FogSequentialForward.fog[89].dispatcher externalJobs 7608413
scalar FogSequentialForward.fog[89].dispatcher remoteJobs 7608124
scalar FogSequentialForward.fog[89].dispatcher probeQueries 0
scalar FogSequentialForward.fog[89].dispatcher probeAnswers 0
scalar FogSequentialForward.fog[89].dispatcher droppedJobsSLA 304064
scalar FogSequentialForward.fog[89].dispatcher jobs_class_1 9231872
scalar FogSequentialForward.fog[89].dispatcher remoteJobs_class_1 7608124
scalar FogSequentialForward.fog[89].dispatcher localJobs_class_1 1319684
scalar FogSequentialForward.fog[89].dispatcher droppedJobsSLA_class_1 304064
scalar FogSequentialForward.fog[89].server[0] rho 0.99999988079071
scalar FogSequentialForward.fog[89].server[0] congestionRatio 0
scalar FogSequentialForward.fog[89].server[0] totalJobs 1319684
scalar FogSequentialForward.fog[89].server[0] droppedJobsQueue 26307
scalar FogSequentialForward.fog[89].server[0] droppedJobsTimout 0
scalar FogSequentialForward.fog[89].server[0] droppedJobsSLA 795760
scalar FogSequentialForward.fog[89].server[0] droppedJobsTotal 822067
scalar FogSequentialForward.fog[90].dispatcher localJobs 1319568
scalar FogSequentialForward.fog[90].dispatcher internalJobs 1623125
scalar FogSequentialForward.fog[90].dispatcher externalJobs 7603932
scalar FogSequentialForward.fog[90].dispatcher remoteJobs 7603117
scalar FogSequentialForward.fog[90].dispatcher probeQueries 0
scalar FogSequentialForward.fog[90].dispatcher probeAnswers 0
scalar FogSequentialForward.fog[90].dispatcher droppedJobsSLA 304372
scalar FogSequentialForward.fog[90].dispatcher jobs_class_1 9227057
scalar FogSequentialForward.fog[90].dispatcher remoteJobs_class_1 7603117
scalar FogSequentialForward.fog[90].dispatcher localJobs_class_1 1319568
scalar FogSequentialForward.fog[90].dispatcher droppedJobsSLA_class_1 304372
scalar FogSequentialForward.fog[90].server[0] rho 0.99999958276749
scalar FogSequentialForward.fog[90].server[0] congestionRatio 0
scalar FogSequentialForward.fog[90].server[0] totalJobs 1319568
scalar FogSequentialForward.fog[90].server[0] droppedJobsQueue 26290
scalar FogSequentialForward.fog[90].server[0] droppedJobsTimout 0
scalar FogSequentialForward.fog[90].server[0] droppedJobsSLA 795448
scalar FogSequentialForward.fog[90].server[0] droppedJobsTotal 821738
scalar FogSequentialForward.fog[91].dispatcher localJobs 1318588
scalar FogSequentialForward.fog[91].dispatcher internalJobs 1623250
scalar FogSequentialForward.fog[91].dispatcher externalJobs 7607105
scalar FogSequentialForward.fog[91].dispatcher remoteJobs 7608642
scalar FogSequentialForward.fog[91].dispatcher probeQueries 0
scalar FogSequentialForward.fog[91].dispatcher probeAnswers 0
scalar FogSequentialForward.fog[91].dispatcher droppedJobsSLA 303125
scalar FogSequentialForward.fog[91].dispatcher jobs_class_1 9230355
scalar FogSequentialForward.fog[91].dispatcher remoteJobs_class_1 7608642
scalar FogSequentialForward.fog[91].dispatcher localJobs_class_1 1318588
scalar FogSequentialForward.fog[91].dispatcher droppedJobsSLA_class_1 303125
scalar FogSequentialForward.fog[91].server[0] rho 0.99999862909317
scalar FogSequentialForward.fog[91].server[0] congestionRatio 0
scalar FogSequentialForward.fog[91].server[0] totalJobs 1318588
scalar FogSequentialForward.fog[91].server[0] droppedJobsQueue 26310
scalar FogSequentialForward.fog[91].server[0] droppedJobsTimout 0
scalar FogSequentialForward.fog[91].server[0] droppedJobsSLA 795016
scalar FogSequentialForward.fog[91].server[0] droppedJobsTotal 821326
scalar FogSequentialForward.fog[92].dispatcher localJobs 1320326
scalar FogSequentialForward.fog[92].dispatcher internalJobs 1625381
scalar FogSequentialForward.fog[92].dispatcher externalJobs 7610907
scalar FogSequentialForward.fog[92].dispatcher remoteJobs 7612685
scalar FogSequentialForward.fog[92].dispatcher probeQueries 0
scalar FogSequentialForward.fog[92].dispatcher probeAnswers 0
scalar FogSequentialForward.fog[92].dispatcher droppedJobsSLA 303277
scalar FogSequentialForward.fog[92].dispatcher jobs_class_1 9236288
scalar FogSequentialForward.fog[92].dispatcher remoteJobs_class_1 7612685
scalar FogSequentialForward.fog[92].dispatcher localJobs_class_1 1320326
scalar FogSequentialForward.fog[92].dispatcher droppedJobsSLA_class_1 303277
scalar FogSequentialForward.fog[92].server[0] rho 0.99999898672104
scalar FogSequentialForward.fog[92].server[0] congestionRatio 0
scalar FogSequentialForward.fog[92].server[0] totalJobs 1320326
scalar FogSequentialForward.fog[92].server[0] droppedJobsQueue 26644
scalar FogSequentialForward.fog[92].server[0] droppedJobsTimout 0
scalar FogSequentialForward.fog[92].server[0] droppedJobsSLA 795872
scalar FogSequentialForward.fog[92].server[0] droppedJobsTotal 822516
scalar FogSequentialForward.fog[93].dispatcher localJobs 1318977
scalar FogSequentialForward.fog[93].dispatcher internalJobs 1623173
scalar FogSequentialForward.fog[93].dispatcher externalJobs 7609963
scalar FogSequentialForward.fog[93].dispatcher remoteJobs 7609664
scalar FogSequentialForward.fog[93].dispatcher probeQueries 0
scalar FogSequentialForward.fog[93].dispatcher probeAnswers 0
scalar FogSequentialForward.fog[93].dispatcher droppedJobsSLA 304495
scalar FogSequentialForward.fog[93].dispatcher jobs_class_1 9233136
scalar FogSequentialForward.fog[93].dispatcher remoteJobs_class_1 7609664
scalar FogSequentialForward.fog[93].dispatcher localJobs_class_1 1318977
scalar FogSequentialForward.fog[93].dispatcher droppedJobsSLA_class_1 304495
scalar FogSequentialForward.fog[93].server[0] rho 0.99999976158142
scalar FogSequentialForward.fog[93].server[0] congestionRatio 0
scalar FogSequentialForward.fog[93].server[0] totalJobs 1318977
scalar FogSequentialForward.fog[93].server[0] droppedJobsQueue 26420
scalar FogSequentialForward.fog[93].server[0] droppedJobsTimout 0
scalar FogSequentialForward.fog[93].server[0] droppedJobsSLA 795212
scalar FogSequentialForward.fog[93].server[0] droppedJobsTotal 821632
scalar FogSequentialForward.fog[94].dispatcher localJobs 1319513
scalar FogSequentialForward.fog[94].dispatcher internalJobs 1623678
scalar FogSequentialForward.fog[94].dispatcher externalJobs 7609457
scalar FogSequentialForward.fog[94].dispatcher remoteJobs 7611009
scalar FogSequentialForward.fog[94].dispatcher probeQueries 0
scalar FogSequentialForward.fog[94].dispatcher probeAnswers 0
scalar FogSequentialForward.fog[94].dispatcher droppedJobsSLA 302613
scalar FogSequentialForward.fog[94].dispatcher jobs_class_1 9233135
scalar FogSequentialForward.fog[94].dispatcher remoteJobs_class_1 7611009
scalar FogSequentialForward.fog[94].dispatcher localJobs_class_1 1319513
scalar FogSequentialForward.fog[94].dispatcher droppedJobsSLA_class_1 302613
scalar FogSequentialForward.fog[94].server[0] rho 0.99999964237213
scalar FogSequentialForward.fog[94].server[0] congestionRatio 0
scalar FogSequentialForward.fog[94].server[0] totalJobs 1319513
scalar FogSequentialForward.fog[94].server[0] droppedJobsQueue 26438
scalar FogSequentialForward.fog[94].server[0] droppedJobsTimout 0
scalar FogSequentialForward.fog[94].server[0] droppedJobsSLA 796276
scalar FogSequentialForward.fog[94].server[0] droppedJobsTotal 822714
scalar FogSequentialForward.fog[95].dispatcher localJobs 1319307
scalar FogSequentialForward.fog[95].dispatcher internalJobs 1624598
scalar FogSequentialForward.fog[95].dispatcher externalJobs 7607755
scalar FogSequentialForward.fog[95].dispatcher remoteJobs 7609501
scalar FogSequentialForward.fog[95].dispatcher probeQueries 0
scalar FogSequentialForward.fog[95].dispatcher probeAnswers 0
scalar FogSequentialForward.fog[95].dispatcher droppedJobsSLA 303545
scalar FogSequentialForward.fog[95].dispatcher jobs_class_1 9232353
scalar FogSequentialForward.fog[95].dispatcher remoteJobs_class_1 7609501
scalar FogSequentialForward.fog[95].dispatcher localJobs_class_1 1319307
scalar FogSequentialForward.fog[95].dispatcher droppedJobsSLA_class_1 303545
scalar FogSequentialForward.fog[95].server[0] rho 0.99999934434891
scalar FogSequentialForward.fog[95].server[0] congestionRatio 0
scalar FogSequentialForward.fog[95].server[0] totalJobs 1319307
scalar FogSequentialForward.fog[95].server[0] droppedJobsQueue 26423
scalar FogSequentialForward.fog[95].server[0] droppedJobsTimout 0
scalar FogSequentialForward.fog[95].server[0] droppedJobsSLA 795713
scalar FogSequentialForward.fog[95].server[0] droppedJobsTotal 822136
scalar FogSequentialForward.fog[96].dispatcher localJobs 1319258
scalar FogSequentialForward.fog[96].dispatcher internalJobs 1622472
scalar FogSequentialForward.fog[96].dispatcher externalJobs 7611407
scalar FogSequentialForward.fog[96].dispatcher remoteJobs 7611840
scalar FogSequentialForward.fog[96].dispatcher probeQueries 0
scalar FogSequentialForward.fog[96].dispatcher probeAnswers 0
scalar FogSequentialForward.fog[96].dispatcher droppedJobsSLA 302781
scalar FogSequentialForward.fog[96].dispatcher jobs_class_1 9233879
scalar FogSequentialForward.fog[96].dispatcher remoteJobs_class_1 7611840
scalar FogSequentialForward.fog[96].dispatcher localJobs_class_1 1319258
scalar FogSequentialForward.fog[96].dispatcher droppedJobsSLA_class_1 302781
scalar FogSequentialForward.fog[96].server[0] rho 0.99999982118607
scalar FogSequentialForward.fog[96].server[0] congestionRatio 0
scalar FogSequentialForward.fog[96].server[0] totalJobs 1319258
scalar FogSequentialForward.fog[96].server[0] droppedJobsQueue 26266
scalar FogSequentialForward.fog[96].server[0] droppedJobsTimout 0
scalar FogSequentialForward.fog[96].server[0] droppedJobsSLA 795510
scalar FogSequentialForward.fog[96].server[0] droppedJobsTotal 821776
scalar FogSequentialForward.fog[97].dispatcher localJobs 1319001
scalar FogSequentialForward.fog[97].dispatcher internalJobs 1623120
scalar FogSequentialForward.fog[97].dispatcher externalJobs 7608892
scalar FogSequentialForward.fog[97].dispatcher remoteJobs 7610229
scalar FogSequentialForward.fog[97].dispatcher probeQueries 0
scalar FogSequentialForward.fog[97].dispatcher probeAnswers 0
scalar FogSequentialForward.fog[97].dispatcher droppedJobsSLA 302782
scalar FogSequentialForward.fog[97].dispatcher jobs_class_1 9232012
scalar FogSequentialForward.fog[97].dispatcher remoteJobs_class_1 7610229
scalar FogSequentialForward.fog[97].dispatcher localJobs_class_1 1319001
scalar FogSequentialForward.fog[97].dispatcher droppedJobsSLA_class_1 302782
scalar FogSequentialForward.fog[97].server[0] rho 0.99999952316284
scalar FogSequentialForward.fog[97].server[0] congestionRatio 0
scalar FogSequentialForward.fog[97].server[0] totalJobs 1319001
scalar FogSequentialForward.fog[97].server[0] droppedJobsQueue 26204
scalar FogSequentialForward.fog[97].server[0] droppedJobsTimout 0
scalar FogSequentialForward.fog[97].server[0] droppedJobsSLA 795456
scalar FogSequentialForward.fog[97].server[0] droppedJobsTotal 821660
scalar FogSequentialForward.fog[98].dispatcher localJobs 1319355
scalar FogSequentialForward.fog[98].dispatcher internalJobs 1622899
scalar FogSequentialForward.fog[98].dispatcher externalJobs 7609309
scalar FogSequentialForward.fog[98].dispatcher remoteJobs 7609566
scalar FogSequentialForward.fog[98].dispatcher probeQueries 0
scalar FogSequentialForward.fog[98].dispatcher probeAnswers 0
scalar FogSequentialForward.fog[98].dispatcher droppedJobsSLA 303287
scalar FogSequentialForward.fog[98].dispatcher jobs_class_1 9232208
scalar FogSequentialForward.fog[98].dispatcher remoteJobs_class_1 7609566
scalar FogSequentialForward.fog[98].dispatcher localJobs_class_1 1319355
scalar FogSequentialForward.fog[98].dispatcher droppedJobsSLA_class_1 303287
scalar FogSequentialForward.fog[98].server[0] rho 0.9999994635582
scalar FogSequentialForward.fog[98].server[0] congestionRatio 0
scalar FogSequentialForward.fog[98].server[0] totalJobs 1319355
scalar FogSequentialForward.fog[98].server[0] droppedJobsQueue 26513
scalar FogSequentialForward.fog[98].server[0] droppedJobsTimout 0
scalar FogSequentialForward.fog[98].server[0] droppedJobsSLA 795662
scalar FogSequentialForward.fog[98].server[0] droppedJobsTotal 822175
scalar FogSequentialForward.fog[99].dispatcher localJobs 1319499
scalar FogSequentialForward.fog[99].dispatcher internalJobs 1622976
scalar FogSequentialForward.fog[99].dispatcher externalJobs 7606680
scalar FogSequentialForward.fog[99].dispatcher remoteJobs 7606414
scalar FogSequentialForward.fog[99].dispatcher probeQueries 0
scalar FogSequentialForward.fog[99].dispatcher probeAnswers 0
scalar FogSequentialForward.fog[99].dispatcher droppedJobsSLA 303743
scalar FogSequentialForward.fog[99].dispatcher jobs_class_1 9229656
scalar FogSequentialForward.fog[99].dispatcher remoteJobs_class_1 7606414
scalar FogSequentialForward.fog[99].dispatcher localJobs_class_1 1319499
scalar FogSequentialForward.fog[99].dispatcher droppedJobsSLA_class_1 303743
scalar FogSequentialForward.fog[99].server[0] rho 0.9999994635582
scalar FogSequentialForward.fog[99].server[0] congestionRatio 0
scalar FogSequentialForward.fog[99].server[0] totalJobs 1319499
scalar FogSequentialForward.fog[99].server[0] droppedJobsQueue 26319
scalar FogSequentialForward.fog[99].server[0] droppedJobsTimout 0
scalar FogSequentialForward.fog[99].server[0] droppedJobsSLA 795832
scalar FogSequentialForward.fog[99].server[0] droppedJobsTotal 822151
scalar FogSequentialForward.sink avg_responseTime_1 0.1300682472218
scalar FogSequentialForward.sink p90_responseTime_1 0.015945737652
scalar FogSequentialForward.sink med_responseTime_1 0.015945737652
scalar FogSequentialForward.sink avg_delayTime_1 0
scalar FogSequentialForward.sink p90_delayTime_1 0
scalar FogSequentialForward.sink med_delayTime_1 0
scalar FogSequentialForward.sink avg_queuingTime_1 0.091670301980377
scalar FogSequentialForward.sink p90_queuingTime_1 0
scalar FogSequentialForward.sink med_queuingTime_1 0
scalar FogSequentialForward.sink avg_serviceTime_1 0.016719611759086
scalar FogSequentialForward.sink p90_serviceTime_1 0.014668735407
scalar FogSequentialForward.sink med_serviceTime_1 0.014668735407
scalar FogSequentialForward.sink avg_balancerTime_1 0.021678333482357
scalar FogSequentialForward.sink p90_balancerTime_1 0
scalar FogSequentialForward.sink med_balancerTime_1 0
scalar FogSequentialForward.sink avg_balancerCount_1 2.2981038013355
scalar FogSequentialForward.sink p90_balancerCount_1 1
scalar FogSequentialForward.sink med_balancerCount_1 1

