version 2
run Fog-mul_10-rho_05-thr_19-3-20190714-02:26:26-91331
attr configname Fog-mul_10-rho_05-thr_19
attr datetime 20190714-02:26:26
attr experiment Fog-mul_10-rho_05-thr_19
attr inifile FogSequentialForward.ini
attr iterationvars ""
attr iterationvarsf ""
attr measurement ""
attr network FogSequentialForward
attr processid 91331
attr repetition 3
attr replication #3
attr resultdir results
attr runnumber 3
attr seedset 3
param FogSequentialForward.proctimeMul 1.0
param FogSequentialForward.rho 0.5
param FogSequentialForward.fog[*].dispatcher.thr 19
param FogSequentialForward.nSources 100
param FogSequentialForward.rho 0.9
param FogSequentialForward.proctimeMul 1.0
param FogSequentialForward.source[*].appId 1
param FogSequentialForward.source[*].realTime true
param FogSequentialForward.source[*].multiHop true
param FogSequentialForward.fog[*].nServers 1
param FogSequentialForward.fog[*].dispatcher.fanOut 1
param FogSequentialForward.fog[*].server[*].timeSlice -1s
param FogSequentialForward.fog[*].server[*].timeout -1s
param FogSequentialForward.fog[*].server[*].capacity 20
param FogSequentialForward.fog[*].server[*].fifo true
param FogSequentialForward.fog[*].server[*].maxServiceTime -1s
param FogSequentialForward.fog[*].dispatcher.thr 1

scalar FogSequentialForward.fog[0].dispatcher localJobs 9118
scalar FogSequentialForward.fog[0].dispatcher internalJobs 9207
scalar FogSequentialForward.fog[0].dispatcher externalJobs 574
scalar FogSequentialForward.fog[0].dispatcher remoteJobs 663
scalar FogSequentialForward.fog[0].dispatcher probeQueries 0
scalar FogSequentialForward.fog[0].dispatcher probeAnswers 0
scalar FogSequentialForward.fog[0].dispatcher droppedJobsSLA 0
scalar FogSequentialForward.fog[0].dispatcher jobs_class_1 9781
scalar FogSequentialForward.fog[0].dispatcher remoteJobs_class_1 663
scalar FogSequentialForward.fog[0].dispatcher localJobs_class_1 9118
scalar FogSequentialForward.fog[0].server[0] rho 1
scalar FogSequentialForward.fog[0].server[0] congestionRatio 0
scalar FogSequentialForward.fog[0].server[0] totalJobs 9118
scalar FogSequentialForward.fog[0].server[0] droppedJobsQueue 17
scalar FogSequentialForward.fog[0].server[0] droppedJobsTimout 0
scalar FogSequentialForward.fog[0].server[0] droppedJobsSLA 5794
scalar FogSequentialForward.fog[0].server[0] droppedJobsTotal 5811
scalar FogSequentialForward.fog[1].dispatcher localJobs 9034
scalar FogSequentialForward.fog[1].dispatcher internalJobs 9030
scalar FogSequentialForward.fog[1].dispatcher externalJobs 611
scalar FogSequentialForward.fog[1].dispatcher remoteJobs 607
scalar FogSequentialForward.fog[1].dispatcher probeQueries 0
scalar FogSequentialForward.fog[1].dispatcher probeAnswers 0
scalar FogSequentialForward.fog[1].dispatcher droppedJobsSLA 0
scalar FogSequentialForward.fog[1].dispatcher jobs_class_1 9641
scalar FogSequentialForward.fog[1].dispatcher remoteJobs_class_1 607
scalar FogSequentialForward.fog[1].dispatcher localJobs_class_1 9034
scalar FogSequentialForward.fog[1].server[0] rho 1
scalar FogSequentialForward.fog[1].server[0] congestionRatio 0
scalar FogSequentialForward.fog[1].server[0] totalJobs 9034
scalar FogSequentialForward.fog[1].server[0] droppedJobsQueue 14
scalar FogSequentialForward.fog[1].server[0] droppedJobsTimout 0
scalar FogSequentialForward.fog[1].server[0] droppedJobsSLA 5754
scalar FogSequentialForward.fog[1].server[0] droppedJobsTotal 5768
scalar FogSequentialForward.fog[2].dispatcher localJobs 8952
scalar FogSequentialForward.fog[2].dispatcher internalJobs 9002
scalar FogSequentialForward.fog[2].dispatcher externalJobs 586
scalar FogSequentialForward.fog[2].dispatcher remoteJobs 636
scalar FogSequentialForward.fog[2].dispatcher probeQueries 0
scalar FogSequentialForward.fog[2].dispatcher probeAnswers 0
scalar FogSequentialForward.fog[2].dispatcher droppedJobsSLA 0
scalar FogSequentialForward.fog[2].dispatcher jobs_class_1 9588
scalar FogSequentialForward.fog[2].dispatcher remoteJobs_class_1 636
scalar FogSequentialForward.fog[2].dispatcher localJobs_class_1 8952
scalar FogSequentialForward.fog[2].server[0] rho 0.99981635808945
scalar FogSequentialForward.fog[2].server[0] congestionRatio 0
scalar FogSequentialForward.fog[2].server[0] totalJobs 8952
scalar FogSequentialForward.fog[2].server[0] droppedJobsQueue 10
scalar FogSequentialForward.fog[2].server[0] droppedJobsTimout 0
scalar FogSequentialForward.fog[2].server[0] droppedJobsSLA 5566
scalar FogSequentialForward.fog[2].server[0] droppedJobsTotal 5576
scalar FogSequentialForward.fog[3].dispatcher localJobs 9074
scalar FogSequentialForward.fog[3].dispatcher internalJobs 9084
scalar FogSequentialForward.fog[3].dispatcher externalJobs 596
scalar FogSequentialForward.fog[3].dispatcher remoteJobs 606
scalar FogSequentialForward.fog[3].dispatcher probeQueries 0
scalar FogSequentialForward.fog[3].dispatcher probeAnswers 0
scalar FogSequentialForward.fog[3].dispatcher droppedJobsSLA 0
scalar FogSequentialForward.fog[3].dispatcher jobs_class_1 9680
scalar FogSequentialForward.fog[3].dispatcher remoteJobs_class_1 606
scalar FogSequentialForward.fog[3].dispatcher localJobs_class_1 9074
scalar FogSequentialForward.fog[3].server[0] rho 1
scalar FogSequentialForward.fog[3].server[0] congestionRatio 0
scalar FogSequentialForward.fog[3].server[0] totalJobs 9074
scalar FogSequentialForward.fog[3].server[0] droppedJobsQueue 13
scalar FogSequentialForward.fog[3].server[0] droppedJobsTimout 0
scalar FogSequentialForward.fog[3].server[0] droppedJobsSLA 5836
scalar FogSequentialForward.fog[3].server[0] droppedJobsTotal 5849
scalar FogSequentialForward.fog[4].dispatcher localJobs 8935
scalar FogSequentialForward.fog[4].dispatcher internalJobs 8910
scalar FogSequentialForward.fog[4].dispatcher externalJobs 567
scalar FogSequentialForward.fog[4].dispatcher remoteJobs 542
scalar FogSequentialForward.fog[4].dispatcher probeQueries 0
scalar FogSequentialForward.fog[4].dispatcher probeAnswers 0
scalar FogSequentialForward.fog[4].dispatcher droppedJobsSLA 0
scalar FogSequentialForward.fog[4].dispatcher jobs_class_1 9477
scalar FogSequentialForward.fog[4].dispatcher remoteJobs_class_1 542
scalar FogSequentialForward.fog[4].dispatcher localJobs_class_1 8935
scalar FogSequentialForward.fog[4].server[0] rho 1
scalar FogSequentialForward.fog[4].server[0] congestionRatio 0
scalar FogSequentialForward.fog[4].server[0] totalJobs 8935
scalar FogSequentialForward.fog[4].server[0] droppedJobsQueue 16
scalar FogSequentialForward.fog[4].server[0] droppedJobsTimout 0
scalar FogSequentialForward.fog[4].server[0] droppedJobsSLA 5529
scalar FogSequentialForward.fog[4].server[0] droppedJobsTotal 5545
scalar FogSequentialForward.fog[5].dispatcher localJobs 9003
scalar FogSequentialForward.fog[5].dispatcher internalJobs 9072
scalar FogSequentialForward.fog[5].dispatcher externalJobs 586
scalar FogSequentialForward.fog[5].dispatcher remoteJobs 655
scalar FogSequentialForward.fog[5].dispatcher probeQueries 0
scalar FogSequentialForward.fog[5].dispatcher probeAnswers 0
scalar FogSequentialForward.fog[5].dispatcher droppedJobsSLA 0
scalar FogSequentialForward.fog[5].dispatcher jobs_class_1 9658
scalar FogSequentialForward.fog[5].dispatcher remoteJobs_class_1 655
scalar FogSequentialForward.fog[5].dispatcher localJobs_class_1 9003
scalar FogSequentialForward.fog[5].server[0] rho 0.99967420101166
scalar FogSequentialForward.fog[5].server[0] congestionRatio 0
scalar FogSequentialForward.fog[5].server[0] totalJobs 9003
scalar FogSequentialForward.fog[5].server[0] droppedJobsQueue 16
scalar FogSequentialForward.fog[5].server[0] droppedJobsTimout 0
scalar FogSequentialForward.fog[5].server[0] droppedJobsSLA 5619
scalar FogSequentialForward.fog[5].server[0] droppedJobsTotal 5635
scalar FogSequentialForward.fog[6].dispatcher localJobs 8910
scalar FogSequentialForward.fog[6].dispatcher internalJobs 8887
scalar FogSequentialForward.fog[6].dispatcher externalJobs 565
scalar FogSequentialForward.fog[6].dispatcher remoteJobs 542
scalar FogSequentialForward.fog[6].dispatcher probeQueries 0
scalar FogSequentialForward.fog[6].dispatcher probeAnswers 0
scalar FogSequentialForward.fog[6].dispatcher droppedJobsSLA 0
scalar FogSequentialForward.fog[6].dispatcher jobs_class_1 9452
scalar FogSequentialForward.fog[6].dispatcher remoteJobs_class_1 542
scalar FogSequentialForward.fog[6].dispatcher localJobs_class_1 8910
scalar FogSequentialForward.fog[6].server[0] rho 0.99971103668213
scalar FogSequentialForward.fog[6].server[0] congestionRatio 0
scalar FogSequentialForward.fog[6].server[0] totalJobs 8910
scalar FogSequentialForward.fog[6].server[0] droppedJobsQueue 13
scalar FogSequentialForward.fog[6].server[0] droppedJobsTimout 0
scalar FogSequentialForward.fog[6].server[0] droppedJobsSLA 5528
scalar FogSequentialForward.fog[6].server[0] droppedJobsTotal 5541
scalar FogSequentialForward.fog[7].dispatcher localJobs 8969
scalar FogSequentialForward.fog[7].dispatcher internalJobs 8967
scalar FogSequentialForward.fog[7].dispatcher externalJobs 590
scalar FogSequentialForward.fog[7].dispatcher remoteJobs 588
scalar FogSequentialForward.fog[7].dispatcher probeQueries 0
scalar FogSequentialForward.fog[7].dispatcher probeAnswers 0
scalar FogSequentialForward.fog[7].dispatcher droppedJobsSLA 0
scalar FogSequentialForward.fog[7].dispatcher jobs_class_1 9557
scalar FogSequentialForward.fog[7].dispatcher remoteJobs_class_1 588
scalar FogSequentialForward.fog[7].dispatcher localJobs_class_1 8969
scalar FogSequentialForward.fog[7].server[0] rho 0.99980598688126
scalar FogSequentialForward.fog[7].server[0] congestionRatio 0
scalar FogSequentialForward.fog[7].server[0] totalJobs 8969
scalar FogSequentialForward.fog[7].server[0] droppedJobsQueue 12
scalar FogSequentialForward.fog[7].server[0] droppedJobsTimout 0
scalar FogSequentialForward.fog[7].server[0] droppedJobsSLA 5612
scalar FogSequentialForward.fog[7].server[0] droppedJobsTotal 5624
scalar FogSequentialForward.fog[8].dispatcher localJobs 9176
scalar FogSequentialForward.fog[8].dispatcher internalJobs 9240
scalar FogSequentialForward.fog[8].dispatcher externalJobs 630
scalar FogSequentialForward.fog[8].dispatcher remoteJobs 694
scalar FogSequentialForward.fog[8].dispatcher probeQueries 0
scalar FogSequentialForward.fog[8].dispatcher probeAnswers 0
scalar FogSequentialForward.fog[8].dispatcher droppedJobsSLA 0
scalar FogSequentialForward.fog[8].dispatcher jobs_class_1 9870
scalar FogSequentialForward.fog[8].dispatcher remoteJobs_class_1 694
scalar FogSequentialForward.fog[8].dispatcher localJobs_class_1 9176
scalar FogSequentialForward.fog[8].server[0] rho 0.99983376264572
scalar FogSequentialForward.fog[8].server[0] congestionRatio 0
scalar FogSequentialForward.fog[8].server[0] totalJobs 9176
scalar FogSequentialForward.fog[8].server[0] droppedJobsQueue 18
scalar FogSequentialForward.fog[8].server[0] droppedJobsTimout 0
scalar FogSequentialForward.fog[8].server[0] droppedJobsSLA 6025
scalar FogSequentialForward.fog[8].server[0] droppedJobsTotal 6043
scalar FogSequentialForward.fog[9].dispatcher localJobs 9020
scalar FogSequentialForward.fog[9].dispatcher internalJobs 9039
scalar FogSequentialForward.fog[9].dispatcher externalJobs 590
scalar FogSequentialForward.fog[9].dispatcher remoteJobs 609
scalar FogSequentialForward.fog[9].dispatcher probeQueries 0
scalar FogSequentialForward.fog[9].dispatcher probeAnswers 0
scalar FogSequentialForward.fog[9].dispatcher droppedJobsSLA 0
scalar FogSequentialForward.fog[9].dispatcher jobs_class_1 9629
scalar FogSequentialForward.fog[9].dispatcher remoteJobs_class_1 609
scalar FogSequentialForward.fog[9].dispatcher localJobs_class_1 9020
scalar FogSequentialForward.fog[9].server[0] rho 1
scalar FogSequentialForward.fog[9].server[0] congestionRatio 0
scalar FogSequentialForward.fog[9].server[0] totalJobs 9020
scalar FogSequentialForward.fog[9].server[0] droppedJobsQueue 13
scalar FogSequentialForward.fog[9].server[0] droppedJobsTimout 0
scalar FogSequentialForward.fog[9].server[0] droppedJobsSLA 5614
scalar FogSequentialForward.fog[9].server[0] droppedJobsTotal 5627
scalar FogSequentialForward.fog[10].dispatcher localJobs 9093
scalar FogSequentialForward.fog[10].dispatcher internalJobs 9155
scalar FogSequentialForward.fog[10].dispatcher externalJobs 606
scalar FogSequentialForward.fog[10].dispatcher remoteJobs 668
scalar FogSequentialForward.fog[10].dispatcher probeQueries 0
scalar FogSequentialForward.fog[10].dispatcher probeAnswers 0
scalar FogSequentialForward.fog[10].dispatcher droppedJobsSLA 0
scalar FogSequentialForward.fog[10].dispatcher jobs_class_1 9761
scalar FogSequentialForward.fog[10].dispatcher remoteJobs_class_1 668
scalar FogSequentialForward.fog[10].dispatcher localJobs_class_1 9093
scalar FogSequentialForward.fog[10].server[0] rho 0.99936836957932
scalar FogSequentialForward.fog[10].server[0] congestionRatio 0
scalar FogSequentialForward.fog[10].server[0] totalJobs 9093
scalar FogSequentialForward.fog[10].server[0] droppedJobsQueue 15
scalar FogSequentialForward.fog[10].server[0] droppedJobsTimout 0
scalar FogSequentialForward.fog[10].server[0] droppedJobsSLA 5858
scalar FogSequentialForward.fog[10].server[0] droppedJobsTotal 5873
scalar FogSequentialForward.fog[11].dispatcher localJobs 8990
scalar FogSequentialForward.fog[11].dispatcher internalJobs 8965
scalar FogSequentialForward.fog[11].dispatcher externalJobs 576
scalar FogSequentialForward.fog[11].dispatcher remoteJobs 551
scalar FogSequentialForward.fog[11].dispatcher probeQueries 0
scalar FogSequentialForward.fog[11].dispatcher probeAnswers 0
scalar FogSequentialForward.fog[11].dispatcher droppedJobsSLA 0
scalar FogSequentialForward.fog[11].dispatcher jobs_class_1 9541
scalar FogSequentialForward.fog[11].dispatcher remoteJobs_class_1 551
scalar FogSequentialForward.fog[11].dispatcher localJobs_class_1 8990
scalar FogSequentialForward.fog[11].server[0] rho 0.99972468614578
scalar FogSequentialForward.fog[11].server[0] congestionRatio 0
scalar FogSequentialForward.fog[11].server[0] totalJobs 8990
scalar FogSequentialForward.fog[11].server[0] droppedJobsQueue 10
scalar FogSequentialForward.fog[11].server[0] droppedJobsTimout 0
scalar FogSequentialForward.fog[11].server[0] droppedJobsSLA 5704
scalar FogSequentialForward.fog[11].server[0] droppedJobsTotal 5714
scalar FogSequentialForward.fog[12].dispatcher localJobs 9044
scalar FogSequentialForward.fog[12].dispatcher internalJobs 8971
scalar FogSequentialForward.fog[12].dispatcher externalJobs 629
scalar FogSequentialForward.fog[12].dispatcher remoteJobs 556
scalar FogSequentialForward.fog[12].dispatcher probeQueries 0
scalar FogSequentialForward.fog[12].dispatcher probeAnswers 0
scalar FogSequentialForward.fog[12].dispatcher droppedJobsSLA 0
scalar FogSequentialForward.fog[12].dispatcher jobs_class_1 9600
scalar FogSequentialForward.fog[12].dispatcher remoteJobs_class_1 556
scalar FogSequentialForward.fog[12].dispatcher localJobs_class_1 9044
scalar FogSequentialForward.fog[12].server[0] rho 1
scalar FogSequentialForward.fog[12].server[0] congestionRatio 0
scalar FogSequentialForward.fog[12].server[0] totalJobs 9044
scalar FogSequentialForward.fog[12].server[0] droppedJobsQueue 11
scalar FogSequentialForward.fog[12].server[0] droppedJobsTimout 0
scalar FogSequentialForward.fog[12].server[0] droppedJobsSLA 5775
scalar FogSequentialForward.fog[12].server[0] droppedJobsTotal 5786
scalar FogSequentialForward.fog[13].dispatcher localJobs 9016
scalar FogSequentialForward.fog[13].dispatcher internalJobs 9036
scalar FogSequentialForward.fog[13].dispatcher externalJobs 633
scalar FogSequentialForward.fog[13].dispatcher remoteJobs 653
scalar FogSequentialForward.fog[13].dispatcher probeQueries 0
scalar FogSequentialForward.fog[13].dispatcher probeAnswers 0
scalar FogSequentialForward.fog[13].dispatcher droppedJobsSLA 0
scalar FogSequentialForward.fog[13].dispatcher jobs_class_1 9669
scalar FogSequentialForward.fog[13].dispatcher remoteJobs_class_1 653
scalar FogSequentialForward.fog[13].dispatcher localJobs_class_1 9016
scalar FogSequentialForward.fog[13].server[0] rho 1
scalar FogSequentialForward.fog[13].server[0] congestionRatio 0
scalar FogSequentialForward.fog[13].server[0] totalJobs 9016
scalar FogSequentialForward.fog[13].server[0] droppedJobsQueue 20
scalar FogSequentialForward.fog[13].server[0] droppedJobsTimout 0
scalar FogSequentialForward.fog[13].server[0] droppedJobsSLA 5668
scalar FogSequentialForward.fog[13].server[0] droppedJobsTotal 5688
scalar FogSequentialForward.fog[14].dispatcher localJobs 9073
scalar FogSequentialForward.fog[14].dispatcher internalJobs 9150
scalar FogSequentialForward.fog[14].dispatcher externalJobs 590
scalar FogSequentialForward.fog[14].dispatcher remoteJobs 667
scalar FogSequentialForward.fog[14].dispatcher probeQueries 0
scalar FogSequentialForward.fog[14].dispatcher probeAnswers 0
scalar FogSequentialForward.fog[14].dispatcher droppedJobsSLA 0
scalar FogSequentialForward.fog[14].dispatcher jobs_class_1 9740
scalar FogSequentialForward.fog[14].dispatcher remoteJobs_class_1 667
scalar FogSequentialForward.fog[14].dispatcher localJobs_class_1 9073
scalar FogSequentialForward.fog[14].server[0] rho 0.99959528446198
scalar FogSequentialForward.fog[14].server[0] congestionRatio 0
scalar FogSequentialForward.fog[14].server[0] totalJobs 9073
scalar FogSequentialForward.fog[14].server[0] droppedJobsQueue 22
scalar FogSequentialForward.fog[14].server[0] droppedJobsTimout 0
scalar FogSequentialForward.fog[14].server[0] droppedJobsSLA 5691
scalar FogSequentialForward.fog[14].server[0] droppedJobsTotal 5713
scalar FogSequentialForward.fog[15].dispatcher localJobs 9018
scalar FogSequentialForward.fog[15].dispatcher internalJobs 9043
scalar FogSequentialForward.fog[15].dispatcher externalJobs 576
scalar FogSequentialForward.fog[15].dispatcher remoteJobs 601
scalar FogSequentialForward.fog[15].dispatcher probeQueries 0
scalar FogSequentialForward.fog[15].dispatcher probeAnswers 0
scalar FogSequentialForward.fog[15].dispatcher droppedJobsSLA 0
scalar FogSequentialForward.fog[15].dispatcher jobs_class_1 9619
scalar FogSequentialForward.fog[15].dispatcher remoteJobs_class_1 601
scalar FogSequentialForward.fog[15].dispatcher localJobs_class_1 9018
scalar FogSequentialForward.fog[15].server[0] rho 1
scalar FogSequentialForward.fog[15].server[0] congestionRatio 0
scalar FogSequentialForward.fog[15].server[0] totalJobs 9018
scalar FogSequentialForward.fog[15].server[0] droppedJobsQueue 14
scalar FogSequentialForward.fog[15].server[0] droppedJobsTimout 0
scalar FogSequentialForward.fog[15].server[0] droppedJobsSLA 5611
scalar FogSequentialForward.fog[15].server[0] droppedJobsTotal 5625
scalar FogSequentialForward.fog[16].dispatcher localJobs 9050
scalar FogSequentialForward.fog[16].dispatcher internalJobs 9079
scalar FogSequentialForward.fog[16].dispatcher externalJobs 569
scalar FogSequentialForward.fog[16].dispatcher remoteJobs 598
scalar FogSequentialForward.fog[16].dispatcher probeQueries 0
scalar FogSequentialForward.fog[16].dispatcher probeAnswers 0
scalar FogSequentialForward.fog[16].dispatcher droppedJobsSLA 0
scalar FogSequentialForward.fog[16].dispatcher jobs_class_1 9648
scalar FogSequentialForward.fog[16].dispatcher remoteJobs_class_1 598
scalar FogSequentialForward.fog[16].dispatcher localJobs_class_1 9050
scalar FogSequentialForward.fog[16].server[0] rho 0.99989014863968
scalar FogSequentialForward.fog[16].server[0] congestionRatio 0
scalar FogSequentialForward.fog[16].server[0] totalJobs 9050
scalar FogSequentialForward.fog[16].server[0] droppedJobsQueue 16
scalar FogSequentialForward.fog[16].server[0] droppedJobsTimout 0
scalar FogSequentialForward.fog[16].server[0] droppedJobsSLA 5715
scalar FogSequentialForward.fog[16].server[0] droppedJobsTotal 5731
scalar FogSequentialForward.fog[17].dispatcher localJobs 8921
scalar FogSequentialForward.fog[17].dispatcher internalJobs 8861
scalar FogSequentialForward.fog[17].dispatcher externalJobs 578
scalar FogSequentialForward.fog[17].dispatcher remoteJobs 518
scalar FogSequentialForward.fog[17].dispatcher probeQueries 0
scalar FogSequentialForward.fog[17].dispatcher probeAnswers 0
scalar FogSequentialForward.fog[17].dispatcher droppedJobsSLA 0
scalar FogSequentialForward.fog[17].dispatcher jobs_class_1 9439
scalar FogSequentialForward.fog[17].dispatcher remoteJobs_class_1 518
scalar FogSequentialForward.fog[17].dispatcher localJobs_class_1 8921
scalar FogSequentialForward.fog[17].server[0] rho 1
scalar FogSequentialForward.fog[17].server[0] congestionRatio 0
scalar FogSequentialForward.fog[17].server[0] totalJobs 8921
scalar FogSequentialForward.fog[17].server[0] droppedJobsQueue 7
scalar FogSequentialForward.fog[17].server[0] droppedJobsTimout 0
scalar FogSequentialForward.fog[17].server[0] droppedJobsSLA 5511
scalar FogSequentialForward.fog[17].server[0] droppedJobsTotal 5518
scalar FogSequentialForward.fog[18].dispatcher localJobs 8966
scalar FogSequentialForward.fog[18].dispatcher internalJobs 8885
scalar FogSequentialForward.fog[18].dispatcher externalJobs 614
scalar FogSequentialForward.fog[18].dispatcher remoteJobs 533
scalar FogSequentialForward.fog[18].dispatcher probeQueries 0
scalar FogSequentialForward.fog[18].dispatcher probeAnswers 0
scalar FogSequentialForward.fog[18].dispatcher droppedJobsSLA 0
scalar FogSequentialForward.fog[18].dispatcher jobs_class_1 9499
scalar FogSequentialForward.fog[18].dispatcher remoteJobs_class_1 533
scalar FogSequentialForward.fog[18].dispatcher localJobs_class_1 8966
scalar FogSequentialForward.fog[18].server[0] rho 1
scalar FogSequentialForward.fog[18].server[0] congestionRatio 0
scalar FogSequentialForward.fog[18].server[0] totalJobs 8966
scalar FogSequentialForward.fog[18].server[0] droppedJobsQueue 14
scalar FogSequentialForward.fog[18].server[0] droppedJobsTimout 0
scalar FogSequentialForward.fog[18].server[0] droppedJobsSLA 5635
scalar FogSequentialForward.fog[18].server[0] droppedJobsTotal 5649
scalar FogSequentialForward.fog[19].dispatcher localJobs 8925
scalar FogSequentialForward.fog[19].dispatcher internalJobs 8959
scalar FogSequentialForward.fog[19].dispatcher externalJobs 532
scalar FogSequentialForward.fog[19].dispatcher remoteJobs 566
scalar FogSequentialForward.fog[19].dispatcher probeQueries 0
scalar FogSequentialForward.fog[19].dispatcher probeAnswers 0
scalar FogSequentialForward.fog[19].dispatcher droppedJobsSLA 0
scalar FogSequentialForward.fog[19].dispatcher jobs_class_1 9491
scalar FogSequentialForward.fog[19].dispatcher remoteJobs_class_1 566
scalar FogSequentialForward.fog[19].dispatcher localJobs_class_1 8925
scalar FogSequentialForward.fog[19].server[0] rho 1
scalar FogSequentialForward.fog[19].server[0] congestionRatio 0
scalar FogSequentialForward.fog[19].server[0] totalJobs 8925
scalar FogSequentialForward.fog[19].server[0] droppedJobsQueue 10
scalar FogSequentialForward.fog[19].server[0] droppedJobsTimout 0
scalar FogSequentialForward.fog[19].server[0] droppedJobsSLA 5619
scalar FogSequentialForward.fog[19].server[0] droppedJobsTotal 5629
scalar FogSequentialForward.fog[20].dispatcher localJobs 9016
scalar FogSequentialForward.fog[20].dispatcher internalJobs 8949
scalar FogSequentialForward.fog[20].dispatcher externalJobs 607
scalar FogSequentialForward.fog[20].dispatcher remoteJobs 540
scalar FogSequentialForward.fog[20].dispatcher probeQueries 0
scalar FogSequentialForward.fog[20].dispatcher probeAnswers 0
scalar FogSequentialForward.fog[20].dispatcher droppedJobsSLA 0
scalar FogSequentialForward.fog[20].dispatcher jobs_class_1 9556
scalar FogSequentialForward.fog[20].dispatcher remoteJobs_class_1 540
scalar FogSequentialForward.fog[20].dispatcher localJobs_class_1 9016
scalar FogSequentialForward.fog[20].server[0] rho 1
scalar FogSequentialForward.fog[20].server[0] congestionRatio 0
scalar FogSequentialForward.fog[20].server[0] totalJobs 9016
scalar FogSequentialForward.fog[20].server[0] droppedJobsQueue 9
scalar FogSequentialForward.fog[20].server[0] droppedJobsTimout 0
scalar FogSequentialForward.fog[20].server[0] droppedJobsSLA 5627
scalar FogSequentialForward.fog[20].server[0] droppedJobsTotal 5636
scalar FogSequentialForward.fog[21].dispatcher localJobs 9078
scalar FogSequentialForward.fog[21].dispatcher internalJobs 9179
scalar FogSequentialForward.fog[21].dispatcher externalJobs 580
scalar FogSequentialForward.fog[21].dispatcher remoteJobs 681
scalar FogSequentialForward.fog[21].dispatcher probeQueries 0
scalar FogSequentialForward.fog[21].dispatcher probeAnswers 0
scalar FogSequentialForward.fog[21].dispatcher droppedJobsSLA 0
scalar FogSequentialForward.fog[21].dispatcher jobs_class_1 9759
scalar FogSequentialForward.fog[21].dispatcher remoteJobs_class_1 681
scalar FogSequentialForward.fog[21].dispatcher localJobs_class_1 9078
scalar FogSequentialForward.fog[21].server[0] rho 0.99997353553772
scalar FogSequentialForward.fog[21].server[0] congestionRatio 0
scalar FogSequentialForward.fog[21].server[0] totalJobs 9078
scalar FogSequentialForward.fog[21].server[0] droppedJobsQueue 15
scalar FogSequentialForward.fog[21].server[0] droppedJobsTimout 0
scalar FogSequentialForward.fog[21].server[0] droppedJobsSLA 5759
scalar FogSequentialForward.fog[21].server[0] droppedJobsTotal 5774
scalar FogSequentialForward.fog[22].dispatcher localJobs 8986
scalar FogSequentialForward.fog[22].dispatcher internalJobs 9003
scalar FogSequentialForward.fog[22].dispatcher externalJobs 568
scalar FogSequentialForward.fog[22].dispatcher remoteJobs 585
scalar FogSequentialForward.fog[22].dispatcher probeQueries 0
scalar FogSequentialForward.fog[22].dispatcher probeAnswers 0
scalar FogSequentialForward.fog[22].dispatcher droppedJobsSLA 0
scalar FogSequentialForward.fog[22].dispatcher jobs_class_1 9571
scalar FogSequentialForward.fog[22].dispatcher remoteJobs_class_1 585
scalar FogSequentialForward.fog[22].dispatcher localJobs_class_1 8986
scalar FogSequentialForward.fog[22].server[0] rho 1
scalar FogSequentialForward.fog[22].server[0] congestionRatio 0
scalar FogSequentialForward.fog[22].server[0] totalJobs 8986
scalar FogSequentialForward.fog[22].server[0] droppedJobsQueue 21
scalar FogSequentialForward.fog[22].server[0] droppedJobsTimout 0
scalar FogSequentialForward.fog[22].server[0] droppedJobsSLA 5536
scalar FogSequentialForward.fog[22].server[0] droppedJobsTotal 5557
scalar FogSequentialForward.fog[23].dispatcher localJobs 8934
scalar FogSequentialForward.fog[23].dispatcher internalJobs 8934
scalar FogSequentialForward.fog[23].dispatcher externalJobs 598
scalar FogSequentialForward.fog[23].dispatcher remoteJobs 598
scalar FogSequentialForward.fog[23].dispatcher probeQueries 0
scalar FogSequentialForward.fog[23].dispatcher probeAnswers 0
scalar FogSequentialForward.fog[23].dispatcher droppedJobsSLA 0
scalar FogSequentialForward.fog[23].dispatcher jobs_class_1 9532
scalar FogSequentialForward.fog[23].dispatcher remoteJobs_class_1 598
scalar FogSequentialForward.fog[23].dispatcher localJobs_class_1 8934
scalar FogSequentialForward.fog[23].server[0] rho 0.99955701828003
scalar FogSequentialForward.fog[23].server[0] congestionRatio 0
scalar FogSequentialForward.fog[23].server[0] totalJobs 8934
scalar FogSequentialForward.fog[23].server[0] droppedJobsQueue 12
scalar FogSequentialForward.fog[23].server[0] droppedJobsTimout 0
scalar FogSequentialForward.fog[23].server[0] droppedJobsSLA 5508
scalar FogSequentialForward.fog[23].server[0] droppedJobsTotal 5520
scalar FogSequentialForward.fog[24].dispatcher localJobs 8983
scalar FogSequentialForward.fog[24].dispatcher internalJobs 8942
scalar FogSequentialForward.fog[24].dispatcher externalJobs 591
scalar FogSequentialForward.fog[24].dispatcher remoteJobs 550
scalar FogSequentialForward.fog[24].dispatcher probeQueries 0
scalar FogSequentialForward.fog[24].dispatcher probeAnswers 0
scalar FogSequentialForward.fog[24].dispatcher droppedJobsSLA 0
scalar FogSequentialForward.fog[24].dispatcher jobs_class_1 9533
scalar FogSequentialForward.fog[24].dispatcher remoteJobs_class_1 550
scalar FogSequentialForward.fog[24].dispatcher localJobs_class_1 8983
scalar FogSequentialForward.fog[24].server[0] rho 0.9997136592865
scalar FogSequentialForward.fog[24].server[0] congestionRatio 0
scalar FogSequentialForward.fog[24].server[0] totalJobs 8983
scalar FogSequentialForward.fog[24].server[0] droppedJobsQueue 19
scalar FogSequentialForward.fog[24].server[0] droppedJobsTimout 0
scalar FogSequentialForward.fog[24].server[0] droppedJobsSLA 5535
scalar FogSequentialForward.fog[24].server[0] droppedJobsTotal 5554
scalar FogSequentialForward.fog[25].dispatcher localJobs 9001
scalar FogSequentialForward.fog[25].dispatcher internalJobs 9018
scalar FogSequentialForward.fog[25].dispatcher externalJobs 596
scalar FogSequentialForward.fog[25].dispatcher remoteJobs 613
scalar FogSequentialForward.fog[25].dispatcher probeQueries 0
scalar FogSequentialForward.fog[25].dispatcher probeAnswers 0
scalar FogSequentialForward.fog[25].dispatcher droppedJobsSLA 0
scalar FogSequentialForward.fog[25].dispatcher jobs_class_1 9614
scalar FogSequentialForward.fog[25].dispatcher remoteJobs_class_1 613
scalar FogSequentialForward.fog[25].dispatcher localJobs_class_1 9001
scalar FogSequentialForward.fog[25].server[0] rho 0.99962413311005
scalar FogSequentialForward.fog[25].server[0] congestionRatio 0
scalar FogSequentialForward.fog[25].server[0] totalJobs 9001
scalar FogSequentialForward.fog[25].server[0] droppedJobsQueue 17
scalar FogSequentialForward.fog[25].server[0] droppedJobsTimout 0
scalar FogSequentialForward.fog[25].server[0] droppedJobsSLA 5654
scalar FogSequentialForward.fog[25].server[0] droppedJobsTotal 5671
scalar FogSequentialForward.fog[26].dispatcher localJobs 9093
scalar FogSequentialForward.fog[26].dispatcher internalJobs 9107
scalar FogSequentialForward.fog[26].dispatcher externalJobs 590
scalar FogSequentialForward.fog[26].dispatcher remoteJobs 604
scalar FogSequentialForward.fog[26].dispatcher probeQueries 0
scalar FogSequentialForward.fog[26].dispatcher probeAnswers 0
scalar FogSequentialForward.fog[26].dispatcher droppedJobsSLA 0
scalar FogSequentialForward.fog[26].dispatcher jobs_class_1 9697
scalar FogSequentialForward.fog[26].dispatcher remoteJobs_class_1 604
scalar FogSequentialForward.fog[26].dispatcher localJobs_class_1 9093
scalar FogSequentialForward.fog[26].server[0] rho 0.99996799230576
scalar FogSequentialForward.fog[26].server[0] congestionRatio 0
scalar FogSequentialForward.fog[26].server[0] totalJobs 9093
scalar FogSequentialForward.fog[26].server[0] droppedJobsQueue 13
scalar FogSequentialForward.fog[26].server[0] droppedJobsTimout 0
scalar FogSequentialForward.fog[26].server[0] droppedJobsSLA 5849
scalar FogSequentialForward.fog[26].server[0] droppedJobsTotal 5862
scalar FogSequentialForward.fog[27].dispatcher localJobs 9075
scalar FogSequentialForward.fog[27].dispatcher internalJobs 9097
scalar FogSequentialForward.fog[27].dispatcher externalJobs 604
scalar FogSequentialForward.fog[27].dispatcher remoteJobs 626
scalar FogSequentialForward.fog[27].dispatcher probeQueries 0
scalar FogSequentialForward.fog[27].dispatcher probeAnswers 0
scalar FogSequentialForward.fog[27].dispatcher droppedJobsSLA 0
scalar FogSequentialForward.fog[27].dispatcher jobs_class_1 9701
scalar FogSequentialForward.fog[27].dispatcher remoteJobs_class_1 626
scalar FogSequentialForward.fog[27].dispatcher localJobs_class_1 9075
scalar FogSequentialForward.fog[27].server[0] rho 0.99989926815033
scalar FogSequentialForward.fog[27].server[0] congestionRatio 0
scalar FogSequentialForward.fog[27].server[0] totalJobs 9075
scalar FogSequentialForward.fog[27].server[0] droppedJobsQueue 15
scalar FogSequentialForward.fog[27].server[0] droppedJobsTimout 0
scalar FogSequentialForward.fog[27].server[0] droppedJobsSLA 5782
scalar FogSequentialForward.fog[27].server[0] droppedJobsTotal 5797
scalar FogSequentialForward.fog[28].dispatcher localJobs 9018
scalar FogSequentialForward.fog[28].dispatcher internalJobs 9025
scalar FogSequentialForward.fog[28].dispatcher externalJobs 549
scalar FogSequentialForward.fog[28].dispatcher remoteJobs 556
scalar FogSequentialForward.fog[28].dispatcher probeQueries 0
scalar FogSequentialForward.fog[28].dispatcher probeAnswers 0
scalar FogSequentialForward.fog[28].dispatcher droppedJobsSLA 0
scalar FogSequentialForward.fog[28].dispatcher jobs_class_1 9574
scalar FogSequentialForward.fog[28].dispatcher remoteJobs_class_1 556
scalar FogSequentialForward.fog[28].dispatcher localJobs_class_1 9018
scalar FogSequentialForward.fog[28].server[0] rho 1
scalar FogSequentialForward.fog[28].server[0] congestionRatio 0
scalar FogSequentialForward.fog[28].server[0] totalJobs 9018
scalar FogSequentialForward.fog[28].server[0] droppedJobsQueue 13
scalar FogSequentialForward.fog[28].server[0] droppedJobsTimout 0
scalar FogSequentialForward.fog[28].server[0] droppedJobsSLA 5671
scalar FogSequentialForward.fog[28].server[0] droppedJobsTotal 5684
scalar FogSequentialForward.fog[29].dispatcher localJobs 9021
scalar FogSequentialForward.fog[29].dispatcher internalJobs 8938
scalar FogSequentialForward.fog[29].dispatcher externalJobs 605
scalar FogSequentialForward.fog[29].dispatcher remoteJobs 522
scalar FogSequentialForward.fog[29].dispatcher probeQueries 0
scalar FogSequentialForward.fog[29].dispatcher probeAnswers 0
scalar FogSequentialForward.fog[29].dispatcher droppedJobsSLA 0
scalar FogSequentialForward.fog[29].dispatcher jobs_class_1 9543
scalar FogSequentialForward.fog[29].dispatcher remoteJobs_class_1 522
scalar FogSequentialForward.fog[29].dispatcher localJobs_class_1 9021
scalar FogSequentialForward.fog[29].server[0] rho 1
scalar FogSequentialForward.fog[29].server[0] congestionRatio 0
scalar FogSequentialForward.fog[29].server[0] totalJobs 9021
scalar FogSequentialForward.fog[29].server[0] droppedJobsQueue 9
scalar FogSequentialForward.fog[29].server[0] droppedJobsTimout 0
scalar FogSequentialForward.fog[29].server[0] droppedJobsSLA 5607
scalar FogSequentialForward.fog[29].server[0] droppedJobsTotal 5616
scalar FogSequentialForward.fog[30].dispatcher localJobs 8946
scalar FogSequentialForward.fog[30].dispatcher internalJobs 8907
scalar FogSequentialForward.fog[30].dispatcher externalJobs 591
scalar FogSequentialForward.fog[30].dispatcher remoteJobs 552
scalar FogSequentialForward.fog[30].dispatcher probeQueries 0
scalar FogSequentialForward.fog[30].dispatcher probeAnswers 0
scalar FogSequentialForward.fog[30].dispatcher droppedJobsSLA 0
scalar FogSequentialForward.fog[30].dispatcher jobs_class_1 9498
scalar FogSequentialForward.fog[30].dispatcher remoteJobs_class_1 552
scalar FogSequentialForward.fog[30].dispatcher localJobs_class_1 8946
scalar FogSequentialForward.fog[30].server[0] rho 0.99978733062744
scalar FogSequentialForward.fog[30].server[0] congestionRatio 0
scalar FogSequentialForward.fog[30].server[0] totalJobs 8946
scalar FogSequentialForward.fog[30].server[0] droppedJobsQueue 12
scalar FogSequentialForward.fog[30].server[0] droppedJobsTimout 0
scalar FogSequentialForward.fog[30].server[0] droppedJobsSLA 5581
scalar FogSequentialForward.fog[30].server[0] droppedJobsTotal 5593
scalar FogSequentialForward.fog[31].dispatcher localJobs 9002
scalar FogSequentialForward.fog[31].dispatcher internalJobs 8975
scalar FogSequentialForward.fog[31].dispatcher externalJobs 574
scalar FogSequentialForward.fog[31].dispatcher remoteJobs 547
scalar FogSequentialForward.fog[31].dispatcher probeQueries 0
scalar FogSequentialForward.fog[31].dispatcher probeAnswers 0
scalar FogSequentialForward.fog[31].dispatcher droppedJobsSLA 0
scalar FogSequentialForward.fog[31].dispatcher jobs_class_1 9549
scalar FogSequentialForward.fog[31].dispatcher remoteJobs_class_1 547
scalar FogSequentialForward.fog[31].dispatcher localJobs_class_1 9002
scalar FogSequentialForward.fog[31].server[0] rho 0.99969977140427
scalar FogSequentialForward.fog[31].server[0] congestionRatio 0
scalar FogSequentialForward.fog[31].server[0] totalJobs 9002
scalar FogSequentialForward.fog[31].server[0] droppedJobsQueue 13
scalar FogSequentialForward.fog[31].server[0] droppedJobsTimout 0
scalar FogSequentialForward.fog[31].server[0] droppedJobsSLA 5702
scalar FogSequentialForward.fog[31].server[0] droppedJobsTotal 5715
scalar FogSequentialForward.fog[32].dispatcher localJobs 9004
scalar FogSequentialForward.fog[32].dispatcher internalJobs 8939
scalar FogSequentialForward.fog[32].dispatcher externalJobs 599
scalar FogSequentialForward.fog[32].dispatcher remoteJobs 534
scalar FogSequentialForward.fog[32].dispatcher probeQueries 0
scalar FogSequentialForward.fog[32].dispatcher probeAnswers 0
scalar FogSequentialForward.fog[32].dispatcher droppedJobsSLA 0
scalar FogSequentialForward.fog[32].dispatcher jobs_class_1 9538
scalar FogSequentialForward.fog[32].dispatcher remoteJobs_class_1 534
scalar FogSequentialForward.fog[32].dispatcher localJobs_class_1 9004
scalar FogSequentialForward.fog[32].server[0] rho 0.9993269443512
scalar FogSequentialForward.fog[32].server[0] congestionRatio 0
scalar FogSequentialForward.fog[32].server[0] totalJobs 9004
scalar FogSequentialForward.fog[32].server[0] droppedJobsQueue 16
scalar FogSequentialForward.fog[32].server[0] droppedJobsTimout 0
scalar FogSequentialForward.fog[32].server[0] droppedJobsSLA 5708
scalar FogSequentialForward.fog[32].server[0] droppedJobsTotal 5724
scalar FogSequentialForward.fog[33].dispatcher localJobs 8942
scalar FogSequentialForward.fog[33].dispatcher internalJobs 8957
scalar FogSequentialForward.fog[33].dispatcher externalJobs 559
scalar FogSequentialForward.fog[33].dispatcher remoteJobs 574
scalar FogSequentialForward.fog[33].dispatcher probeQueries 0
scalar FogSequentialForward.fog[33].dispatcher probeAnswers 0
scalar FogSequentialForward.fog[33].dispatcher droppedJobsSLA 0
scalar FogSequentialForward.fog[33].dispatcher jobs_class_1 9516
scalar FogSequentialForward.fog[33].dispatcher remoteJobs_class_1 574
scalar FogSequentialForward.fog[33].dispatcher localJobs_class_1 8942
scalar FogSequentialForward.fog[33].server[0] rho 0.99999648332596
scalar FogSequentialForward.fog[33].server[0] congestionRatio 0
scalar FogSequentialForward.fog[33].server[0] totalJobs 8942
scalar FogSequentialForward.fog[33].server[0] droppedJobsQueue 11
scalar FogSequentialForward.fog[33].server[0] droppedJobsTimout 0
scalar FogSequentialForward.fog[33].server[0] droppedJobsSLA 5548
scalar FogSequentialForward.fog[33].server[0] droppedJobsTotal 5559
scalar FogSequentialForward.fog[34].dispatcher localJobs 9035
scalar FogSequentialForward.fog[34].dispatcher internalJobs 9056
scalar FogSequentialForward.fog[34].dispatcher externalJobs 615
scalar FogSequentialForward.fog[34].dispatcher remoteJobs 636
scalar FogSequentialForward.fog[34].dispatcher probeQueries 0
scalar FogSequentialForward.fog[34].dispatcher probeAnswers 0
scalar FogSequentialForward.fog[34].dispatcher droppedJobsSLA 0
scalar FogSequentialForward.fog[34].dispatcher jobs_class_1 9671
scalar FogSequentialForward.fog[34].dispatcher remoteJobs_class_1 636
scalar FogSequentialForward.fog[34].dispatcher localJobs_class_1 9035
scalar FogSequentialForward.fog[34].server[0] rho 0.99994689226151
scalar FogSequentialForward.fog[34].server[0] congestionRatio 0
scalar FogSequentialForward.fog[34].server[0] totalJobs 9035
scalar FogSequentialForward.fog[34].server[0] droppedJobsQueue 13
scalar FogSequentialForward.fog[34].server[0] droppedJobsTimout 0
scalar FogSequentialForward.fog[34].server[0] droppedJobsSLA 5654
scalar FogSequentialForward.fog[34].server[0] droppedJobsTotal 5667
scalar FogSequentialForward.fog[35].dispatcher localJobs 9010
scalar FogSequentialForward.fog[35].dispatcher internalJobs 8980
scalar FogSequentialForward.fog[35].dispatcher externalJobs 582
scalar FogSequentialForward.fog[35].dispatcher remoteJobs 552
scalar FogSequentialForward.fog[35].dispatcher probeQueries 0
scalar FogSequentialForward.fog[35].dispatcher probeAnswers 0
scalar FogSequentialForward.fog[35].dispatcher droppedJobsSLA 0
scalar FogSequentialForward.fog[35].dispatcher jobs_class_1 9562
scalar FogSequentialForward.fog[35].dispatcher remoteJobs_class_1 552
scalar FogSequentialForward.fog[35].dispatcher localJobs_class_1 9010
scalar FogSequentialForward.fog[35].server[0] rho 1
scalar FogSequentialForward.fog[35].server[0] congestionRatio 0
scalar FogSequentialForward.fog[35].server[0] totalJobs 9010
scalar FogSequentialForward.fog[35].server[0] droppedJobsQueue 12
scalar FogSequentialForward.fog[35].server[0] droppedJobsTimout 0
scalar FogSequentialForward.fog[35].server[0] droppedJobsSLA 5727
scalar FogSequentialForward.fog[35].server[0] droppedJobsTotal 5739
scalar FogSequentialForward.fog[36].dispatcher localJobs 8915
scalar FogSequentialForward.fog[36].dispatcher internalJobs 8891
scalar FogSequentialForward.fog[36].dispatcher externalJobs 589
scalar FogSequentialForward.fog[36].dispatcher remoteJobs 565
scalar FogSequentialForward.fog[36].dispatcher probeQueries 0
scalar FogSequentialForward.fog[36].dispatcher probeAnswers 0
scalar FogSequentialForward.fog[36].dispatcher droppedJobsSLA 0
scalar FogSequentialForward.fog[36].dispatcher jobs_class_1 9480
scalar FogSequentialForward.fog[36].dispatcher remoteJobs_class_1 565
scalar FogSequentialForward.fog[36].dispatcher localJobs_class_1 8915
scalar FogSequentialForward.fog[36].server[0] rho 1
scalar FogSequentialForward.fog[36].server[0] congestionRatio 0
scalar FogSequentialForward.fog[36].server[0] totalJobs 8915
scalar FogSequentialForward.fog[36].server[0] droppedJobsQueue 17
scalar FogSequentialForward.fog[36].server[0] droppedJobsTimout 0
scalar FogSequentialForward.fog[36].server[0] droppedJobsSLA 5530
scalar FogSequentialForward.fog[36].server[0] droppedJobsTotal 5547
scalar FogSequentialForward.fog[37].dispatcher localJobs 8855
scalar FogSequentialForward.fog[37].dispatcher internalJobs 8826
scalar FogSequentialForward.fog[37].dispatcher externalJobs 617
scalar FogSequentialForward.fog[37].dispatcher remoteJobs 588
scalar FogSequentialForward.fog[37].dispatcher probeQueries 0
scalar FogSequentialForward.fog[37].dispatcher probeAnswers 0
scalar FogSequentialForward.fog[37].dispatcher droppedJobsSLA 0
scalar FogSequentialForward.fog[37].dispatcher jobs_class_1 9443
scalar FogSequentialForward.fog[37].dispatcher remoteJobs_class_1 588
scalar FogSequentialForward.fog[37].dispatcher localJobs_class_1 8855
scalar FogSequentialForward.fog[37].server[0] rho 0.99958825111389
scalar FogSequentialForward.fog[37].server[0] congestionRatio 0
scalar FogSequentialForward.fog[37].server[0] totalJobs 8855
scalar FogSequentialForward.fog[37].server[0] droppedJobsQueue 7
scalar FogSequentialForward.fog[37].server[0] droppedJobsTimout 0
scalar FogSequentialForward.fog[37].server[0] droppedJobsSLA 5371
scalar FogSequentialForward.fog[37].server[0] droppedJobsTotal 5378
scalar FogSequentialForward.fog[38].dispatcher localJobs 9057
scalar FogSequentialForward.fog[38].dispatcher internalJobs 9044
scalar FogSequentialForward.fog[38].dispatcher externalJobs 646
scalar FogSequentialForward.fog[38].dispatcher remoteJobs 633
scalar FogSequentialForward.fog[38].dispatcher probeQueries 0
scalar FogSequentialForward.fog[38].dispatcher probeAnswers 0
scalar FogSequentialForward.fog[38].dispatcher droppedJobsSLA 0
scalar FogSequentialForward.fog[38].dispatcher jobs_class_1 9690
scalar FogSequentialForward.fog[38].dispatcher remoteJobs_class_1 633
scalar FogSequentialForward.fog[38].dispatcher localJobs_class_1 9057
scalar FogSequentialForward.fog[38].server[0] rho 0.9996662735939
scalar FogSequentialForward.fog[38].server[0] congestionRatio 0
scalar FogSequentialForward.fog[38].server[0] totalJobs 9057
scalar FogSequentialForward.fog[38].server[0] droppedJobsQueue 13
scalar FogSequentialForward.fog[38].server[0] droppedJobsTimout 0
scalar FogSequentialForward.fog[38].server[0] droppedJobsSLA 5715
scalar FogSequentialForward.fog[38].server[0] droppedJobsTotal 5728
scalar FogSequentialForward.fog[39].dispatcher localJobs 8950
scalar FogSequentialForward.fog[39].dispatcher internalJobs 8953
scalar FogSequentialForward.fog[39].dispatcher externalJobs 607
scalar FogSequentialForward.fog[39].dispatcher remoteJobs 610
scalar FogSequentialForward.fog[39].dispatcher probeQueries 0
scalar FogSequentialForward.fog[39].dispatcher probeAnswers 0
scalar FogSequentialForward.fog[39].dispatcher droppedJobsSLA 0
scalar FogSequentialForward.fog[39].dispatcher jobs_class_1 9560
scalar FogSequentialForward.fog[39].dispatcher remoteJobs_class_1 610
scalar FogSequentialForward.fog[39].dispatcher localJobs_class_1 8950
scalar FogSequentialForward.fog[39].server[0] rho 0.99994480609894
scalar FogSequentialForward.fog[39].server[0] congestionRatio 0
scalar FogSequentialForward.fog[39].server[0] totalJobs 8950
scalar FogSequentialForward.fog[39].server[0] droppedJobsQueue 18
scalar FogSequentialForward.fog[39].server[0] droppedJobsTimout 0
scalar FogSequentialForward.fog[39].server[0] droppedJobsSLA 5534
scalar FogSequentialForward.fog[39].server[0] droppedJobsTotal 5552
scalar FogSequentialForward.fog[40].dispatcher localJobs 8969
scalar FogSequentialForward.fog[40].dispatcher internalJobs 8920
scalar FogSequentialForward.fog[40].dispatcher externalJobs 603
scalar FogSequentialForward.fog[40].dispatcher remoteJobs 554
scalar FogSequentialForward.fog[40].dispatcher probeQueries 0
scalar FogSequentialForward.fog[40].dispatcher probeAnswers 0
scalar FogSequentialForward.fog[40].dispatcher droppedJobsSLA 0
scalar FogSequentialForward.fog[40].dispatcher jobs_class_1 9523
scalar FogSequentialForward.fog[40].dispatcher remoteJobs_class_1 554
scalar FogSequentialForward.fog[40].dispatcher localJobs_class_1 8969
scalar FogSequentialForward.fog[40].server[0] rho 1
scalar FogSequentialForward.fog[40].server[0] congestionRatio 0
scalar FogSequentialForward.fog[40].server[0] totalJobs 8969
scalar FogSequentialForward.fog[40].server[0] droppedJobsQueue 11
scalar FogSequentialForward.fog[40].server[0] droppedJobsTimout 0
scalar FogSequentialForward.fog[40].server[0] droppedJobsSLA 5634
scalar FogSequentialForward.fog[40].server[0] droppedJobsTotal 5645
scalar FogSequentialForward.fog[41].dispatcher localJobs 9045
scalar FogSequentialForward.fog[41].dispatcher internalJobs 9086
scalar FogSequentialForward.fog[41].dispatcher externalJobs 582
scalar FogSequentialForward.fog[41].dispatcher remoteJobs 623
scalar FogSequentialForward.fog[41].dispatcher probeQueries 0
scalar FogSequentialForward.fog[41].dispatcher probeAnswers 0
scalar FogSequentialForward.fog[41].dispatcher droppedJobsSLA 0
scalar FogSequentialForward.fog[41].dispatcher jobs_class_1 9668
scalar FogSequentialForward.fog[41].dispatcher remoteJobs_class_1 623
scalar FogSequentialForward.fog[41].dispatcher localJobs_class_1 9045
scalar FogSequentialForward.fog[41].server[0] rho 1
scalar FogSequentialForward.fog[41].server[0] congestionRatio 0
scalar FogSequentialForward.fog[41].server[0] totalJobs 9045
scalar FogSequentialForward.fog[41].server[0] droppedJobsQueue 14
scalar FogSequentialForward.fog[41].server[0] droppedJobsTimout 0
scalar FogSequentialForward.fog[41].server[0] droppedJobsSLA 5705
scalar FogSequentialForward.fog[41].server[0] droppedJobsTotal 5719
scalar FogSequentialForward.fog[42].dispatcher localJobs 8968
scalar FogSequentialForward.fog[42].dispatcher internalJobs 8941
scalar FogSequentialForward.fog[42].dispatcher externalJobs 574
scalar FogSequentialForward.fog[42].dispatcher remoteJobs 547
scalar FogSequentialForward.fog[42].dispatcher probeQueries 0
scalar FogSequentialForward.fog[42].dispatcher probeAnswers 0
scalar FogSequentialForward.fog[42].dispatcher droppedJobsSLA 0
scalar FogSequentialForward.fog[42].dispatcher jobs_class_1 9515
scalar FogSequentialForward.fog[42].dispatcher remoteJobs_class_1 547
scalar FogSequentialForward.fog[42].dispatcher localJobs_class_1 8968
scalar FogSequentialForward.fog[42].server[0] rho 1
scalar FogSequentialForward.fog[42].server[0] congestionRatio 0
scalar FogSequentialForward.fog[42].server[0] totalJobs 8968
scalar FogSequentialForward.fog[42].server[0] droppedJobsQueue 9
scalar FogSequentialForward.fog[42].server[0] droppedJobsTimout 0
scalar FogSequentialForward.fog[42].server[0] droppedJobsSLA 5558
scalar FogSequentialForward.fog[42].server[0] droppedJobsTotal 5567
scalar FogSequentialForward.fog[43].dispatcher localJobs 9014
scalar FogSequentialForward.fog[43].dispatcher internalJobs 8982
scalar FogSequentialForward.fog[43].dispatcher externalJobs 603
scalar FogSequentialForward.fog[43].dispatcher remoteJobs 571
scalar FogSequentialForward.fog[43].dispatcher probeQueries 0
scalar FogSequentialForward.fog[43].dispatcher probeAnswers 0
scalar FogSequentialForward.fog[43].dispatcher droppedJobsSLA 0
scalar FogSequentialForward.fog[43].dispatcher jobs_class_1 9585
scalar FogSequentialForward.fog[43].dispatcher remoteJobs_class_1 571
scalar FogSequentialForward.fog[43].dispatcher localJobs_class_1 9014
scalar FogSequentialForward.fog[43].server[0] rho 1
scalar FogSequentialForward.fog[43].server[0] congestionRatio 0
scalar FogSequentialForward.fog[43].server[0] totalJobs 9014
scalar FogSequentialForward.fog[43].server[0] droppedJobsQueue 11
scalar FogSequentialForward.fog[43].server[0] droppedJobsTimout 0
scalar FogSequentialForward.fog[43].server[0] droppedJobsSLA 5719
scalar FogSequentialForward.fog[43].server[0] droppedJobsTotal 5730
scalar FogSequentialForward.fog[44].dispatcher localJobs 9048
scalar FogSequentialForward.fog[44].dispatcher internalJobs 9123
scalar FogSequentialForward.fog[44].dispatcher externalJobs 574
scalar FogSequentialForward.fog[44].dispatcher remoteJobs 649
scalar FogSequentialForward.fog[44].dispatcher probeQueries 0
scalar FogSequentialForward.fog[44].dispatcher probeAnswers 0
scalar FogSequentialForward.fog[44].dispatcher droppedJobsSLA 0
scalar FogSequentialForward.fog[44].dispatcher jobs_class_1 9697
scalar FogSequentialForward.fog[44].dispatcher remoteJobs_class_1 649
scalar FogSequentialForward.fog[44].dispatcher localJobs_class_1 9048
scalar FogSequentialForward.fog[44].server[0] rho 0.9997730255127
scalar FogSequentialForward.fog[44].server[0] congestionRatio 0
scalar FogSequentialForward.fog[44].server[0] totalJobs 9048
scalar FogSequentialForward.fog[44].server[0] droppedJobsQueue 23
scalar FogSequentialForward.fog[44].server[0] droppedJobsTimout 0
scalar FogSequentialForward.fog[44].server[0] droppedJobsSLA 5676
scalar FogSequentialForward.fog[44].server[0] droppedJobsTotal 5699
scalar FogSequentialForward.fog[45].dispatcher localJobs 8898
scalar FogSequentialForward.fog[45].dispatcher internalJobs 8816
scalar FogSequentialForward.fog[45].dispatcher externalJobs 600
scalar FogSequentialForward.fog[45].dispatcher remoteJobs 518
scalar FogSequentialForward.fog[45].dispatcher probeQueries 0
scalar FogSequentialForward.fog[45].dispatcher probeAnswers 0
scalar FogSequentialForward.fog[45].dispatcher droppedJobsSLA 0
scalar FogSequentialForward.fog[45].dispatcher jobs_class_1 9416
scalar FogSequentialForward.fog[45].dispatcher remoteJobs_class_1 518
scalar FogSequentialForward.fog[45].dispatcher localJobs_class_1 8898
scalar FogSequentialForward.fog[45].server[0] rho 0.99996775388718
scalar FogSequentialForward.fog[45].server[0] congestionRatio 0
scalar FogSequentialForward.fog[45].server[0] totalJobs 8898
scalar FogSequentialForward.fog[45].server[0] droppedJobsQueue 5
scalar FogSequentialForward.fog[45].server[0] droppedJobsTimout 0
scalar FogSequentialForward.fog[45].server[0] droppedJobsSLA 5469
scalar FogSequentialForward.fog[45].server[0] droppedJobsTotal 5474
scalar FogSequentialForward.fog[46].dispatcher localJobs 9014
scalar FogSequentialForward.fog[46].dispatcher internalJobs 8942
scalar FogSequentialForward.fog[46].dispatcher externalJobs 605
scalar FogSequentialForward.fog[46].dispatcher remoteJobs 533
scalar FogSequentialForward.fog[46].dispatcher probeQueries 0
scalar FogSequentialForward.fog[46].dispatcher probeAnswers 0
scalar FogSequentialForward.fog[46].dispatcher droppedJobsSLA 0
scalar FogSequentialForward.fog[46].dispatcher jobs_class_1 9547
scalar FogSequentialForward.fog[46].dispatcher remoteJobs_class_1 533
scalar FogSequentialForward.fog[46].dispatcher localJobs_class_1 9014
scalar FogSequentialForward.fog[46].server[0] rho 0.99977052211761
scalar FogSequentialForward.fog[46].server[0] congestionRatio 0
scalar FogSequentialForward.fog[46].server[0] totalJobs 9014
scalar FogSequentialForward.fog[46].server[0] droppedJobsQueue 15
scalar FogSequentialForward.fog[46].server[0] droppedJobsTimout 0
scalar FogSequentialForward.fog[46].server[0] droppedJobsSLA 5690
scalar FogSequentialForward.fog[46].server[0] droppedJobsTotal 5705
scalar FogSequentialForward.fog[47].dispatcher localJobs 9042
scalar FogSequentialForward.fog[47].dispatcher internalJobs 9125
scalar FogSequentialForward.fog[47].dispatcher externalJobs 561
scalar FogSequentialForward.fog[47].dispatcher remoteJobs 644
scalar FogSequentialForward.fog[47].dispatcher probeQueries 0
scalar FogSequentialForward.fog[47].dispatcher probeAnswers 0
scalar FogSequentialForward.fog[47].dispatcher droppedJobsSLA 0
scalar FogSequentialForward.fog[47].dispatcher jobs_class_1 9686
scalar FogSequentialForward.fog[47].dispatcher remoteJobs_class_1 644
scalar FogSequentialForward.fog[47].dispatcher localJobs_class_1 9042
scalar FogSequentialForward.fog[47].server[0] rho 1
scalar FogSequentialForward.fog[47].server[0] congestionRatio 0
scalar FogSequentialForward.fog[47].server[0] totalJobs 9042
scalar FogSequentialForward.fog[47].server[0] droppedJobsQueue 14
scalar FogSequentialForward.fog[47].server[0] droppedJobsTimout 0
scalar FogSequentialForward.fog[47].server[0] droppedJobsSLA 5718
scalar FogSequentialForward.fog[47].server[0] droppedJobsTotal 5732
scalar FogSequentialForward.fog[48].dispatcher localJobs 9052
scalar FogSequentialForward.fog[48].dispatcher internalJobs 9144
scalar FogSequentialForward.fog[48].dispatcher externalJobs 625
scalar FogSequentialForward.fog[48].dispatcher remoteJobs 717
scalar FogSequentialForward.fog[48].dispatcher probeQueries 0
scalar FogSequentialForward.fog[48].dispatcher probeAnswers 0
scalar FogSequentialForward.fog[48].dispatcher droppedJobsSLA 0
scalar FogSequentialForward.fog[48].dispatcher jobs_class_1 9769
scalar FogSequentialForward.fog[48].dispatcher remoteJobs_class_1 717
scalar FogSequentialForward.fog[48].dispatcher localJobs_class_1 9052
scalar FogSequentialForward.fog[48].server[0] rho 1
scalar FogSequentialForward.fog[48].server[0] congestionRatio 0
scalar FogSequentialForward.fog[48].server[0] totalJobs 9052
scalar FogSequentialForward.fog[48].server[0] droppedJobsQueue 20
scalar FogSequentialForward.fog[48].server[0] droppedJobsTimout 0
scalar FogSequentialForward.fog[48].server[0] droppedJobsSLA 5686
scalar FogSequentialForward.fog[48].server[0] droppedJobsTotal 5706
scalar FogSequentialForward.fog[49].dispatcher localJobs 9056
scalar FogSequentialForward.fog[49].dispatcher internalJobs 9121
scalar FogSequentialForward.fog[49].dispatcher externalJobs 610
scalar FogSequentialForward.fog[49].dispatcher remoteJobs 675
scalar FogSequentialForward.fog[49].dispatcher probeQueries 0
scalar FogSequentialForward.fog[49].dispatcher probeAnswers 0
scalar FogSequentialForward.fog[49].dispatcher droppedJobsSLA 0
scalar FogSequentialForward.fog[49].dispatcher jobs_class_1 9731
scalar FogSequentialForward.fog[49].dispatcher remoteJobs_class_1 675
scalar FogSequentialForward.fog[49].dispatcher localJobs_class_1 9056
scalar FogSequentialForward.fog[49].server[0] rho 1
scalar FogSequentialForward.fog[49].server[0] congestionRatio 0
scalar FogSequentialForward.fog[49].server[0] totalJobs 9056
scalar FogSequentialForward.fog[49].server[0] droppedJobsQueue 17
scalar FogSequentialForward.fog[49].server[0] droppedJobsTimout 0
scalar FogSequentialForward.fog[49].server[0] droppedJobsSLA 5648
scalar FogSequentialForward.fog[49].server[0] droppedJobsTotal 5665
scalar FogSequentialForward.fog[50].dispatcher localJobs 9142
scalar FogSequentialForward.fog[50].dispatcher internalJobs 9177
scalar FogSequentialForward.fog[50].dispatcher externalJobs 600
scalar FogSequentialForward.fog[50].dispatcher remoteJobs 635
scalar FogSequentialForward.fog[50].dispatcher probeQueries 0
scalar FogSequentialForward.fog[50].dispatcher probeAnswers 0
scalar FogSequentialForward.fog[50].dispatcher droppedJobsSLA 0
scalar FogSequentialForward.fog[50].dispatcher jobs_class_1 9777
scalar FogSequentialForward.fog[50].dispatcher remoteJobs_class_1 635
scalar FogSequentialForward.fog[50].dispatcher localJobs_class_1 9142
scalar FogSequentialForward.fog[50].server[0] rho 1
scalar FogSequentialForward.fog[50].server[0] congestionRatio 0
scalar FogSequentialForward.fog[50].server[0] totalJobs 9142
scalar FogSequentialForward.fog[50].server[0] droppedJobsQueue 20
scalar FogSequentialForward.fog[50].server[0] droppedJobsTimout 0
scalar FogSequentialForward.fog[50].server[0] droppedJobsSLA 5986
scalar FogSequentialForward.fog[50].server[0] droppedJobsTotal 6006
scalar FogSequentialForward.fog[51].dispatcher localJobs 8836
scalar FogSequentialForward.fog[51].dispatcher internalJobs 8822
scalar FogSequentialForward.fog[51].dispatcher externalJobs 566
scalar FogSequentialForward.fog[51].dispatcher remoteJobs 552
scalar FogSequentialForward.fog[51].dispatcher probeQueries 0
scalar FogSequentialForward.fog[51].dispatcher probeAnswers 0
scalar FogSequentialForward.fog[51].dispatcher droppedJobsSLA 0
scalar FogSequentialForward.fog[51].dispatcher jobs_class_1 9388
scalar FogSequentialForward.fog[51].dispatcher remoteJobs_class_1 552
scalar FogSequentialForward.fog[51].dispatcher localJobs_class_1 8836
scalar FogSequentialForward.fog[51].server[0] rho 1
scalar FogSequentialForward.fog[51].server[0] congestionRatio 0
scalar FogSequentialForward.fog[51].server[0] totalJobs 8836
scalar FogSequentialForward.fog[51].server[0] droppedJobsQueue 8
scalar FogSequentialForward.fog[51].server[0] droppedJobsTimout 0
scalar FogSequentialForward.fog[51].server[0] droppedJobsSLA 5254
scalar FogSequentialForward.fog[51].server[0] droppedJobsTotal 5262
scalar FogSequentialForward.fog[52].dispatcher localJobs 8914
scalar FogSequentialForward.fog[52].dispatcher internalJobs 8874
scalar FogSequentialForward.fog[52].dispatcher externalJobs 592
scalar FogSequentialForward.fog[52].dispatcher remoteJobs 552
scalar FogSequentialForward.fog[52].dispatcher probeQueries 0
scalar FogSequentialForward.fog[52].dispatcher probeAnswers 0
scalar FogSequentialForward.fog[52].dispatcher droppedJobsSLA 0
scalar FogSequentialForward.fog[52].dispatcher jobs_class_1 9466
scalar FogSequentialForward.fog[52].dispatcher remoteJobs_class_1 552
scalar FogSequentialForward.fog[52].dispatcher localJobs_class_1 8914
scalar FogSequentialForward.fog[52].server[0] rho 1
scalar FogSequentialForward.fog[52].server[0] congestionRatio 0
scalar FogSequentialForward.fog[52].server[0] totalJobs 8914
scalar FogSequentialForward.fog[52].server[0] droppedJobsQueue 13
scalar FogSequentialForward.fog[52].server[0] droppedJobsTimout 0
scalar FogSequentialForward.fog[52].server[0] droppedJobsSLA 5499
scalar FogSequentialForward.fog[52].server[0] droppedJobsTotal 5512
scalar FogSequentialForward.fog[53].dispatcher localJobs 9036
scalar FogSequentialForward.fog[53].dispatcher internalJobs 9106
scalar FogSequentialForward.fog[53].dispatcher externalJobs 579
scalar FogSequentialForward.fog[53].dispatcher remoteJobs 649
scalar FogSequentialForward.fog[53].dispatcher probeQueries 0
scalar FogSequentialForward.fog[53].dispatcher probeAnswers 0
scalar FogSequentialForward.fog[53].dispatcher droppedJobsSLA 0
scalar FogSequentialForward.fog[53].dispatcher jobs_class_1 9685
scalar FogSequentialForward.fog[53].dispatcher remoteJobs_class_1 649
scalar FogSequentialForward.fog[53].dispatcher localJobs_class_1 9036
scalar FogSequentialForward.fog[53].server[0] rho 1
scalar FogSequentialForward.fog[53].server[0] congestionRatio 0
scalar FogSequentialForward.fog[53].server[0] totalJobs 9036
scalar FogSequentialForward.fog[53].server[0] droppedJobsQueue 6
scalar FogSequentialForward.fog[53].server[0] droppedJobsTimout 0
scalar FogSequentialForward.fog[53].server[0] droppedJobsSLA 5688
scalar FogSequentialForward.fog[53].server[0] droppedJobsTotal 5694
scalar FogSequentialForward.fog[54].dispatcher localJobs 8966
scalar FogSequentialForward.fog[54].dispatcher internalJobs 8914
scalar FogSequentialForward.fog[54].dispatcher externalJobs 607
scalar FogSequentialForward.fog[54].dispatcher remoteJobs 555
scalar FogSequentialForward.fog[54].dispatcher probeQueries 0
scalar FogSequentialForward.fog[54].dispatcher probeAnswers 0
scalar FogSequentialForward.fog[54].dispatcher droppedJobsSLA 0
scalar FogSequentialForward.fog[54].dispatcher jobs_class_1 9521
scalar FogSequentialForward.fog[54].dispatcher remoteJobs_class_1 555
scalar FogSequentialForward.fog[54].dispatcher localJobs_class_1 8966
scalar FogSequentialForward.fog[54].server[0] rho 1
scalar FogSequentialForward.fog[54].server[0] congestionRatio 0
scalar FogSequentialForward.fog[54].server[0] totalJobs 8966
scalar FogSequentialForward.fog[54].server[0] droppedJobsQueue 19
scalar FogSequentialForward.fog[54].server[0] droppedJobsTimout 0
scalar FogSequentialForward.fog[54].server[0] droppedJobsSLA 5573
scalar FogSequentialForward.fog[54].server[0] droppedJobsTotal 5592
scalar FogSequentialForward.fog[55].dispatcher localJobs 8970
scalar FogSequentialForward.fog[55].dispatcher internalJobs 8910
scalar FogSequentialForward.fog[55].dispatcher externalJobs 570
scalar FogSequentialForward.fog[55].dispatcher remoteJobs 510
scalar FogSequentialForward.fog[55].dispatcher probeQueries 0
scalar FogSequentialForward.fog[55].dispatcher probeAnswers 0
scalar FogSequentialForward.fog[55].dispatcher droppedJobsSLA 0
scalar FogSequentialForward.fog[55].dispatcher jobs_class_1 9480
scalar FogSequentialForward.fog[55].dispatcher remoteJobs_class_1 510
scalar FogSequentialForward.fog[55].dispatcher localJobs_class_1 8970
scalar FogSequentialForward.fog[55].server[0] rho 0.99987888336182
scalar FogSequentialForward.fog[55].server[0] congestionRatio 0
scalar FogSequentialForward.fog[55].server[0] totalJobs 8970
scalar FogSequentialForward.fog[55].server[0] droppedJobsQueue 13
scalar FogSequentialForward.fog[55].server[0] droppedJobsTimout 0
scalar FogSequentialForward.fog[55].server[0] droppedJobsSLA 5577
scalar FogSequentialForward.fog[55].server[0] droppedJobsTotal 5590
scalar FogSequentialForward.fog[56].dispatcher localJobs 8944
scalar FogSequentialForward.fog[56].dispatcher internalJobs 8910
scalar FogSequentialForward.fog[56].dispatcher externalJobs 589
scalar FogSequentialForward.fog[56].dispatcher remoteJobs 555
scalar FogSequentialForward.fog[56].dispatcher probeQueries 0
scalar FogSequentialForward.fog[56].dispatcher probeAnswers 0
scalar FogSequentialForward.fog[56].dispatcher droppedJobsSLA 0
scalar FogSequentialForward.fog[56].dispatcher jobs_class_1 9499
scalar FogSequentialForward.fog[56].dispatcher remoteJobs_class_1 555
scalar FogSequentialForward.fog[56].dispatcher localJobs_class_1 8944
scalar FogSequentialForward.fog[56].server[0] rho 0.99990826845169
scalar FogSequentialForward.fog[56].server[0] congestionRatio 0
scalar FogSequentialForward.fog[56].server[0] totalJobs 8944
scalar FogSequentialForward.fog[56].server[0] droppedJobsQueue 13
scalar FogSequentialForward.fog[56].server[0] droppedJobsTimout 0
scalar FogSequentialForward.fog[56].server[0] droppedJobsSLA 5557
scalar FogSequentialForward.fog[56].server[0] droppedJobsTotal 5570
scalar FogSequentialForward.fog[57].dispatcher localJobs 8898
scalar FogSequentialForward.fog[57].dispatcher internalJobs 8860
scalar FogSequentialForward.fog[57].dispatcher externalJobs 557
scalar FogSequentialForward.fog[57].dispatcher remoteJobs 519
scalar FogSequentialForward.fog[57].dispatcher probeQueries 0
scalar FogSequentialForward.fog[57].dispatcher probeAnswers 0
scalar FogSequentialForward.fog[57].dispatcher droppedJobsSLA 0
scalar FogSequentialForward.fog[57].dispatcher jobs_class_1 9417
scalar FogSequentialForward.fog[57].dispatcher remoteJobs_class_1 519
scalar FogSequentialForward.fog[57].dispatcher localJobs_class_1 8898
scalar FogSequentialForward.fog[57].server[0] rho 0.99939596652985
scalar FogSequentialForward.fog[57].server[0] congestionRatio 0
scalar FogSequentialForward.fog[57].server[0] totalJobs 8898
scalar FogSequentialForward.fog[57].server[0] droppedJobsQueue 13
scalar FogSequentialForward.fog[57].server[0] droppedJobsTimout 0
scalar FogSequentialForward.fog[57].server[0] droppedJobsSLA 5416
scalar FogSequentialForward.fog[57].server[0] droppedJobsTotal 5429
scalar FogSequentialForward.fog[58].dispatcher localJobs 9078
scalar FogSequentialForward.fog[58].dispatcher internalJobs 9073
scalar FogSequentialForward.fog[58].dispatcher externalJobs 583
scalar FogSequentialForward.fog[58].dispatcher remoteJobs 578
scalar FogSequentialForward.fog[58].dispatcher probeQueries 0
scalar FogSequentialForward.fog[58].dispatcher probeAnswers 0
scalar FogSequentialForward.fog[58].dispatcher droppedJobsSLA 0
scalar FogSequentialForward.fog[58].dispatcher jobs_class_1 9656
scalar FogSequentialForward.fog[58].dispatcher remoteJobs_class_1 578
scalar FogSequentialForward.fog[58].dispatcher localJobs_class_1 9078
scalar FogSequentialForward.fog[58].server[0] rho 0.99982845783234
scalar FogSequentialForward.fog[58].server[0] congestionRatio 0
scalar FogSequentialForward.fog[58].server[0] totalJobs 9078
scalar FogSequentialForward.fog[58].server[0] droppedJobsQueue 15
scalar FogSequentialForward.fog[58].server[0] droppedJobsTimout 0
scalar FogSequentialForward.fog[58].server[0] droppedJobsSLA 5810
scalar FogSequentialForward.fog[58].server[0] droppedJobsTotal 5825
scalar FogSequentialForward.fog[59].dispatcher localJobs 9019
scalar FogSequentialForward.fog[59].dispatcher internalJobs 8990
scalar FogSequentialForward.fog[59].dispatcher externalJobs 571
scalar FogSequentialForward.fog[59].dispatcher remoteJobs 542
scalar FogSequentialForward.fog[59].dispatcher probeQueries 0
scalar FogSequentialForward.fog[59].dispatcher probeAnswers 0
scalar FogSequentialForward.fog[59].dispatcher droppedJobsSLA 0
scalar FogSequentialForward.fog[59].dispatcher jobs_class_1 9561
scalar FogSequentialForward.fog[59].dispatcher remoteJobs_class_1 542
scalar FogSequentialForward.fog[59].dispatcher localJobs_class_1 9019
scalar FogSequentialForward.fog[59].server[0] rho 0.99973690509796
scalar FogSequentialForward.fog[59].server[0] congestionRatio 0
scalar FogSequentialForward.fog[59].server[0] totalJobs 9019
scalar FogSequentialForward.fog[59].server[0] droppedJobsQueue 12
scalar FogSequentialForward.fog[59].server[0] droppedJobsTimout 0
scalar FogSequentialForward.fog[59].server[0] droppedJobsSLA 5719
scalar FogSequentialForward.fog[59].server[0] droppedJobsTotal 5731
scalar FogSequentialForward.fog[60].dispatcher localJobs 8965
scalar FogSequentialForward.fog[60].dispatcher internalJobs 9018
scalar FogSequentialForward.fog[60].dispatcher externalJobs 581
scalar FogSequentialForward.fog[60].dispatcher remoteJobs 634
scalar FogSequentialForward.fog[60].dispatcher probeQueries 0
scalar FogSequentialForward.fog[60].dispatcher probeAnswers 0
scalar FogSequentialForward.fog[60].dispatcher droppedJobsSLA 0
scalar FogSequentialForward.fog[60].dispatcher jobs_class_1 9599
scalar FogSequentialForward.fog[60].dispatcher remoteJobs_class_1 634
scalar FogSequentialForward.fog[60].dispatcher localJobs_class_1 8965
scalar FogSequentialForward.fog[60].server[0] rho 0.99939262866974
scalar FogSequentialForward.fog[60].server[0] congestionRatio 0
scalar FogSequentialForward.fog[60].server[0] totalJobs 8965
scalar FogSequentialForward.fog[60].server[0] droppedJobsQueue 14
scalar FogSequentialForward.fog[60].server[0] droppedJobsTimout 0
scalar FogSequentialForward.fog[60].server[0] droppedJobsSLA 5628
scalar FogSequentialForward.fog[60].server[0] droppedJobsTotal 5642
scalar FogSequentialForward.fog[61].dispatcher localJobs 9009
scalar FogSequentialForward.fog[61].dispatcher internalJobs 8997
scalar FogSequentialForward.fog[61].dispatcher externalJobs 580
scalar FogSequentialForward.fog[61].dispatcher remoteJobs 568
scalar FogSequentialForward.fog[61].dispatcher probeQueries 0
scalar FogSequentialForward.fog[61].dispatcher probeAnswers 0
scalar FogSequentialForward.fog[61].dispatcher droppedJobsSLA 0
scalar FogSequentialForward.fog[61].dispatcher jobs_class_1 9577
scalar FogSequentialForward.fog[61].dispatcher remoteJobs_class_1 568
scalar FogSequentialForward.fog[61].dispatcher localJobs_class_1 9009
scalar FogSequentialForward.fog[61].server[0] rho 1
scalar FogSequentialForward.fog[61].server[0] congestionRatio 0
scalar FogSequentialForward.fog[61].server[0] totalJobs 9009
scalar FogSequentialForward.fog[61].server[0] droppedJobsQueue 13
scalar FogSequentialForward.fog[61].server[0] droppedJobsTimout 0
scalar FogSequentialForward.fog[61].server[0] droppedJobsSLA 5674
scalar FogSequentialForward.fog[61].server[0] droppedJobsTotal 5687
scalar FogSequentialForward.fog[62].dispatcher localJobs 9052
scalar FogSequentialForward.fog[62].dispatcher internalJobs 9087
scalar FogSequentialForward.fog[62].dispatcher externalJobs 570
scalar FogSequentialForward.fog[62].dispatcher remoteJobs 605
scalar FogSequentialForward.fog[62].dispatcher probeQueries 0
scalar FogSequentialForward.fog[62].dispatcher probeAnswers 0
scalar FogSequentialForward.fog[62].dispatcher droppedJobsSLA 0
scalar FogSequentialForward.fog[62].dispatcher jobs_class_1 9657
scalar FogSequentialForward.fog[62].dispatcher remoteJobs_class_1 605
scalar FogSequentialForward.fog[62].dispatcher localJobs_class_1 9052
scalar FogSequentialForward.fog[62].server[0] rho 0.99957513809204
scalar FogSequentialForward.fog[62].server[0] congestionRatio 0
scalar FogSequentialForward.fog[62].server[0] totalJobs 9052
scalar FogSequentialForward.fog[62].server[0] droppedJobsQueue 7
scalar FogSequentialForward.fog[62].server[0] droppedJobsTimout 0
scalar FogSequentialForward.fog[62].server[0] droppedJobsSLA 5784
scalar FogSequentialForward.fog[62].server[0] droppedJobsTotal 5791
scalar FogSequentialForward.fog[63].dispatcher localJobs 8927
scalar FogSequentialForward.fog[63].dispatcher internalJobs 8864
scalar FogSequentialForward.fog[63].dispatcher externalJobs 594
scalar FogSequentialForward.fog[63].dispatcher remoteJobs 531
scalar FogSequentialForward.fog[63].dispatcher probeQueries 0
scalar FogSequentialForward.fog[63].dispatcher probeAnswers 0
scalar FogSequentialForward.fog[63].dispatcher droppedJobsSLA 0
scalar FogSequentialForward.fog[63].dispatcher jobs_class_1 9458
scalar FogSequentialForward.fog[63].dispatcher remoteJobs_class_1 531
scalar FogSequentialForward.fog[63].dispatcher localJobs_class_1 8927
scalar FogSequentialForward.fog[63].server[0] rho 0.99951040744781
scalar FogSequentialForward.fog[63].server[0] congestionRatio 0
scalar FogSequentialForward.fog[63].server[0] totalJobs 8927
scalar FogSequentialForward.fog[63].server[0] droppedJobsQueue 12
scalar FogSequentialForward.fog[63].server[0] droppedJobsTimout 0
scalar FogSequentialForward.fog[63].server[0] droppedJobsSLA 5532
scalar FogSequentialForward.fog[63].server[0] droppedJobsTotal 5544
scalar FogSequentialForward.fog[64].dispatcher localJobs 9140
scalar FogSequentialForward.fog[64].dispatcher internalJobs 9135
scalar FogSequentialForward.fog[64].dispatcher externalJobs 586
scalar FogSequentialForward.fog[64].dispatcher remoteJobs 581
scalar FogSequentialForward.fog[64].dispatcher probeQueries 0
scalar FogSequentialForward.fog[64].dispatcher probeAnswers 0
scalar FogSequentialForward.fog[64].dispatcher droppedJobsSLA 0
scalar FogSequentialForward.fog[64].dispatcher jobs_class_1 9721
scalar FogSequentialForward.fog[64].dispatcher remoteJobs_class_1 581
scalar FogSequentialForward.fog[64].dispatcher localJobs_class_1 9140
scalar FogSequentialForward.fog[64].server[0] rho 1
scalar FogSequentialForward.fog[64].server[0] congestionRatio 0
scalar FogSequentialForward.fog[64].server[0] totalJobs 9140
scalar FogSequentialForward.fog[64].server[0] droppedJobsQueue 16
scalar FogSequentialForward.fog[64].server[0] droppedJobsTimout 0
scalar FogSequentialForward.fog[64].server[0] droppedJobsSLA 5889
scalar FogSequentialForward.fog[64].server[0] droppedJobsTotal 5905
scalar FogSequentialForward.fog[65].dispatcher localJobs 8949
scalar FogSequentialForward.fog[65].dispatcher internalJobs 8951
scalar FogSequentialForward.fog[65].dispatcher externalJobs 551
scalar FogSequentialForward.fog[65].dispatcher remoteJobs 553
scalar FogSequentialForward.fog[65].dispatcher probeQueries 0
scalar FogSequentialForward.fog[65].dispatcher probeAnswers 0
scalar FogSequentialForward.fog[65].dispatcher droppedJobsSLA 0
scalar FogSequentialForward.fog[65].dispatcher jobs_class_1 9502
scalar FogSequentialForward.fog[65].dispatcher remoteJobs_class_1 553
scalar FogSequentialForward.fog[65].dispatcher localJobs_class_1 8949
scalar FogSequentialForward.fog[65].server[0] rho 1
scalar FogSequentialForward.fog[65].server[0] congestionRatio 0
scalar FogSequentialForward.fog[65].server[0] totalJobs 8949
scalar FogSequentialForward.fog[65].server[0] droppedJobsQueue 8
scalar FogSequentialForward.fog[65].server[0] droppedJobsTimout 0
scalar FogSequentialForward.fog[65].server[0] droppedJobsSLA 5602
scalar FogSequentialForward.fog[65].server[0] droppedJobsTotal 5610
scalar FogSequentialForward.fog[66].dispatcher localJobs 8989
scalar FogSequentialForward.fog[66].dispatcher internalJobs 9033
scalar FogSequentialForward.fog[66].dispatcher externalJobs 589
scalar FogSequentialForward.fog[66].dispatcher remoteJobs 633
scalar FogSequentialForward.fog[66].dispatcher probeQueries 0
scalar FogSequentialForward.fog[66].dispatcher probeAnswers 0
scalar FogSequentialForward.fog[66].dispatcher droppedJobsSLA 0
scalar FogSequentialForward.fog[66].dispatcher jobs_class_1 9622
scalar FogSequentialForward.fog[66].dispatcher remoteJobs_class_1 633
scalar FogSequentialForward.fog[66].dispatcher localJobs_class_1 8989
scalar FogSequentialForward.fog[66].server[0] rho 1
scalar FogSequentialForward.fog[66].server[0] congestionRatio 0
scalar FogSequentialForward.fog[66].server[0] totalJobs 8989
scalar FogSequentialForward.fog[66].server[0] droppedJobsQueue 15
scalar FogSequentialForward.fog[66].server[0] droppedJobsTimout 0
scalar FogSequentialForward.fog[66].server[0] droppedJobsSLA 5514
scalar FogSequentialForward.fog[66].server[0] droppedJobsTotal 5529
scalar FogSequentialForward.fog[67].dispatcher localJobs 9000
scalar FogSequentialForward.fog[67].dispatcher internalJobs 9051
scalar FogSequentialForward.fog[67].dispatcher externalJobs 612
scalar FogSequentialForward.fog[67].dispatcher remoteJobs 663
scalar FogSequentialForward.fog[67].dispatcher probeQueries 0
scalar FogSequentialForward.fog[67].dispatcher probeAnswers 0
scalar FogSequentialForward.fog[67].dispatcher droppedJobsSLA 0
scalar FogSequentialForward.fog[67].dispatcher jobs_class_1 9663
scalar FogSequentialForward.fog[67].dispatcher remoteJobs_class_1 663
scalar FogSequentialForward.fog[67].dispatcher localJobs_class_1 9000
scalar FogSequentialForward.fog[67].server[0] rho 1
scalar FogSequentialForward.fog[67].server[0] congestionRatio 0
scalar FogSequentialForward.fog[67].server[0] totalJobs 9000
scalar FogSequentialForward.fog[67].server[0] droppedJobsQueue 17
scalar FogSequentialForward.fog[67].server[0] droppedJobsTimout 0
scalar FogSequentialForward.fog[67].server[0] droppedJobsSLA 5593
scalar FogSequentialForward.fog[67].server[0] droppedJobsTotal 5610
scalar FogSequentialForward.fog[68].dispatcher localJobs 9057
scalar FogSequentialForward.fog[68].dispatcher internalJobs 9064
scalar FogSequentialForward.fog[68].dispatcher externalJobs 601
scalar FogSequentialForward.fog[68].dispatcher remoteJobs 608
scalar FogSequentialForward.fog[68].dispatcher probeQueries 0
scalar FogSequentialForward.fog[68].dispatcher probeAnswers 0
scalar FogSequentialForward.fog[68].dispatcher droppedJobsSLA 0
scalar FogSequentialForward.fog[68].dispatcher jobs_class_1 9665
scalar FogSequentialForward.fog[68].dispatcher remoteJobs_class_1 608
scalar FogSequentialForward.fog[68].dispatcher localJobs_class_1 9057
scalar FogSequentialForward.fog[68].server[0] rho 0.99970883131027
scalar FogSequentialForward.fog[68].server[0] congestionRatio 0
scalar FogSequentialForward.fog[68].server[0] totalJobs 9057
scalar FogSequentialForward.fog[68].server[0] droppedJobsQueue 18
scalar FogSequentialForward.fog[68].server[0] droppedJobsTimout 0
scalar FogSequentialForward.fog[68].server[0] droppedJobsSLA 5776
scalar FogSequentialForward.fog[68].server[0] droppedJobsTotal 5794
scalar FogSequentialForward.fog[69].dispatcher localJobs 8823
scalar FogSequentialForward.fog[69].dispatcher internalJobs 8771
scalar FogSequentialForward.fog[69].dispatcher externalJobs 560
scalar FogSequentialForward.fog[69].dispatcher remoteJobs 508
scalar FogSequentialForward.fog[69].dispatcher probeQueries 0
scalar FogSequentialForward.fog[69].dispatcher probeAnswers 0
scalar FogSequentialForward.fog[69].dispatcher droppedJobsSLA 0
scalar FogSequentialForward.fog[69].dispatcher jobs_class_1 9331
scalar FogSequentialForward.fog[69].dispatcher remoteJobs_class_1 508
scalar FogSequentialForward.fog[69].dispatcher localJobs_class_1 8823
scalar FogSequentialForward.fog[69].server[0] rho 0.99947559833527
scalar FogSequentialForward.fog[69].server[0] congestionRatio 0
scalar FogSequentialForward.fog[69].server[0] totalJobs 8823
scalar FogSequentialForward.fog[69].server[0] droppedJobsQueue 9
scalar FogSequentialForward.fog[69].server[0] droppedJobsTimout 0
scalar FogSequentialForward.fog[69].server[0] droppedJobsSLA 5353
scalar FogSequentialForward.fog[69].server[0] droppedJobsTotal 5362
scalar FogSequentialForward.fog[70].dispatcher localJobs 9047
scalar FogSequentialForward.fog[70].dispatcher internalJobs 9023
scalar FogSequentialForward.fog[70].dispatcher externalJobs 638
scalar FogSequentialForward.fog[70].dispatcher remoteJobs 614
scalar FogSequentialForward.fog[70].dispatcher probeQueries 0
scalar FogSequentialForward.fog[70].dispatcher probeAnswers 0
scalar FogSequentialForward.fog[70].dispatcher droppedJobsSLA 0
scalar FogSequentialForward.fog[70].dispatcher jobs_class_1 9661
scalar FogSequentialForward.fog[70].dispatcher remoteJobs_class_1 614
scalar FogSequentialForward.fog[70].dispatcher localJobs_class_1 9047
scalar FogSequentialForward.fog[70].server[0] rho 1
scalar FogSequentialForward.fog[70].server[0] congestionRatio 0
scalar FogSequentialForward.fog[70].server[0] totalJobs 9047
scalar FogSequentialForward.fog[70].server[0] droppedJobsQueue 13
scalar FogSequentialForward.fog[70].server[0] droppedJobsTimout 0
scalar FogSequentialForward.fog[70].server[0] droppedJobsSLA 5738
scalar FogSequentialForward.fog[70].server[0] droppedJobsTotal 5751
scalar FogSequentialForward.fog[71].dispatcher localJobs 8939
scalar FogSequentialForward.fog[71].dispatcher internalJobs 8940
scalar FogSequentialForward.fog[71].dispatcher externalJobs 602
scalar FogSequentialForward.fog[71].dispatcher remoteJobs 603
scalar FogSequentialForward.fog[71].dispatcher probeQueries 0
scalar FogSequentialForward.fog[71].dispatcher probeAnswers 0
scalar FogSequentialForward.fog[71].dispatcher droppedJobsSLA 0
scalar FogSequentialForward.fog[71].dispatcher jobs_class_1 9542
scalar FogSequentialForward.fog[71].dispatcher remoteJobs_class_1 603
scalar FogSequentialForward.fog[71].dispatcher localJobs_class_1 8939
scalar FogSequentialForward.fog[71].server[0] rho 0.99955832958221
scalar FogSequentialForward.fog[71].server[0] congestionRatio 0
scalar FogSequentialForward.fog[71].server[0] totalJobs 8939
scalar FogSequentialForward.fog[71].server[0] droppedJobsQueue 12
scalar FogSequentialForward.fog[71].server[0] droppedJobsTimout 0
scalar FogSequentialForward.fog[71].server[0] droppedJobsSLA 5439
[...]
scalar FogSequentialForward.fog[82].server[0] droppedJobsTimout 0
scalar FogSequentialForward.fog[82].server[0] droppedJobsSLA 5766
scalar FogSequentialForward.fog[82].server[0] droppedJobsTotal 5786
scalar FogSequentialForward.fog[83].dispatcher localJobs 9006
scalar FogSequentialForward.fog[83].dispatcher internalJobs 8996
scalar FogSequentialForward.fog[83].dispatcher externalJobs 568
scalar FogSequentialForward.fog[83].dispatcher remoteJobs 558
scalar FogSequentialForward.fog[83].dispatcher probeQueries 0
scalar FogSequentialForward.fog[83].dispatcher probeAnswers 0
scalar FogSequentialForward.fog[83].dispatcher droppedJobsSLA 0
scalar FogSequentialForward.fog[83].dispatcher jobs_class_1 9564
scalar FogSequentialForward.fog[83].dispatcher remoteJobs_class_1 558
scalar FogSequentialForward.fog[83].dispatcher localJobs_class_1 9006
scalar FogSequentialForward.fog[83].server[0] rho 0.99955570697784
scalar FogSequentialForward.fog[83].server[0] congestionRatio 0
scalar FogSequentialForward.fog[83].server[0] totalJobs 9006
scalar FogSequentialForward.fog[83].server[0] droppedJobsQueue 6
scalar FogSequentialForward.fog[83].server[0] droppedJobsTimout 0
scalar FogSequentialForward.fog[83].server[0] droppedJobsSLA 5624
scalar FogSequentialForward.fog[83].server[0] droppedJobsTotal 5630
scalar FogSequentialForward.fog[84].dispatcher localJobs 8839
scalar FogSequentialForward.fog[84].dispatcher internalJobs 8758
scalar FogSequentialForward.fog[84].dispatcher externalJobs 592
scalar FogSequentialForward.fog[84].dispatcher remoteJobs 511
scalar FogSequentialForward.fog[84].dispatcher probeQueries 0
scalar FogSequentialForward.fog[84].dispatcher probeAnswers 0
scalar FogSequentialForward.fog[84].dispatcher droppedJobsSLA 0
scalar FogSequentialForward.fog[84].dispatcher jobs_class_1 9350
scalar FogSequentialForward.fog[84].dispatcher remoteJobs_class_1 511
scalar FogSequentialForward.fog[84].dispatcher localJobs_class_1 8839
scalar FogSequentialForward.fog[84].server[0] rho 1
scalar FogSequentialForward.fog[84].server[0] congestionRatio 0
scalar FogSequentialForward.fog[84].server[0] totalJobs 8839
scalar FogSequentialForward.fog[84].server[0] droppedJobsQueue 10
scalar FogSequentialForward.fog[84].server[0] droppedJobsTimout 0
scalar FogSequentialForward.fog[84].server[0] droppedJobsSLA 5316
scalar FogSequentialForward.fog[84].server[0] droppedJobsTotal 5326
scalar FogSequentialForward.fog[85].dispatcher localJobs 8941
scalar FogSequentialForward.fog[85].dispatcher internalJobs 8963
scalar FogSequentialForward.fog[85].dispatcher externalJobs 551
scalar FogSequentialForward.fog[85].dispatcher remoteJobs 573
scalar FogSequentialForward.fog[85].dispatcher probeQueries 0
scalar FogSequentialForward.fog[85].dispatcher probeAnswers 0
scalar FogSequentialForward.fog[85].dispatcher droppedJobsSLA 0
scalar FogSequentialForward.fog[85].dispatcher jobs_class_1 9514
scalar FogSequentialForward.fog[85].dispatcher remoteJobs_class_1 573
scalar FogSequentialForward.fog[85].dispatcher localJobs_class_1 8941
scalar FogSequentialForward.fog[85].server[0] rho 0.99985551834106
scalar FogSequentialForward.fog[85].server[0] congestionRatio 0
scalar FogSequentialForward.fog[85].server[0] totalJobs 8941
scalar FogSequentialForward.fog[85].server[0] droppedJobsQueue 11
scalar FogSequentialForward.fog[85].server[0] droppedJobsTimout 0
scalar FogSequentialForward.fog[85].server[0] droppedJobsSLA 5553
scalar FogSequentialForward.fog[85].server[0] droppedJobsTotal 5564
scalar FogSequentialForward.fog[86].dispatcher localJobs 8992
scalar FogSequentialForward.fog[86].dispatcher internalJobs 8976
scalar FogSequentialForward.fog[86].dispatcher externalJobs 592
scalar FogSequentialForward.fog[86].dispatcher remoteJobs 576
scalar FogSequentialForward.fog[86].dispatcher probeQueries 0
scalar FogSequentialForward.fog[86].dispatcher probeAnswers 0
scalar FogSequentialForward.fog[86].dispatcher droppedJobsSLA 0
scalar FogSequentialForward.fog[86].dispatcher jobs_class_1 9568
scalar FogSequentialForward.fog[86].dispatcher remoteJobs_class_1 576
scalar FogSequentialForward.fog[86].dispatcher localJobs_class_1 8992
scalar FogSequentialForward.fog[86].server[0] rho 0.99996811151505
scalar FogSequentialForward.fog[86].server[0] congestionRatio 0
scalar FogSequentialForward.fog[86].server[0] totalJobs 8992
scalar FogSequentialForward.fog[86].server[0] droppedJobsQueue 16
scalar FogSequentialForward.fog[86].server[0] droppedJobsTimout 0
scalar FogSequentialForward.fog[86].server[0] droppedJobsSLA 5591
scalar FogSequentialForward.fog[86].server[0] droppedJobsTotal 5607
scalar FogSequentialForward.fog[87].dispatcher localJobs 9034
scalar FogSequentialForward.fog[87].dispatcher internalJobs 9075
scalar FogSequentialForward.fog[87].dispatcher externalJobs 541
scalar FogSequentialForward.fog[87].dispatcher remoteJobs 582
scalar FogSequentialForward.fog[87].dispatcher probeQueries 0
scalar FogSequentialForward.fog[87].dispatcher probeAnswers 0
scalar FogSequentialForward.fog[87].dispatcher droppedJobsSLA 0
scalar FogSequentialForward.fog[87].dispatcher jobs_class_1 9616
scalar FogSequentialForward.fog[87].dispatcher remoteJobs_class_1 582
scalar FogSequentialForward.fog[87].dispatcher localJobs_class_1 9034
scalar FogSequentialForward.fog[87].server[0] rho 0.99999618530273
scalar FogSequentialForward.fog[87].server[0] congestionRatio 0
scalar FogSequentialForward.fog[87].server[0] totalJobs 9034
scalar FogSequentialForward.fog[87].server[0] droppedJobsQueue 16
scalar FogSequentialForward.fog[87].server[0] droppedJobsTimout 0
scalar FogSequentialForward.fog[87].server[0] droppedJobsSLA 5759
scalar FogSequentialForward.fog[87].server[0] droppedJobsTotal 5775
scalar FogSequentialForward.fog[88].dispatcher localJobs 9069
scalar FogSequentialForward.fog[88].dispatcher internalJobs 9136
scalar FogSequentialForward.fog[88].dispatcher externalJobs 597
scalar FogSequentialForward.fog[88].dispatcher remoteJobs 664
scalar FogSequentialForward.fog[88].dispatcher probeQueries 0
scalar FogSequentialForward.fog[88].dispatcher probeAnswers 0
scalar FogSequentialForward.fog[88].dispatcher droppedJobsSLA 0
scalar FogSequentialForward.fog[88].dispatcher jobs_class_1 9733
scalar FogSequentialForward.fog[88].dispatcher remoteJobs_class_1 664
scalar FogSequentialForward.fog[88].dispatcher localJobs_class_1 9069
scalar FogSequentialForward.fog[88].server[0] rho 0.99909240007401
scalar FogSequentialForward.fog[88].server[0] congestionRatio 0
scalar FogSequentialForward.fog[88].server[0] totalJobs 9069
scalar FogSequentialForward.fog[88].server[0] droppedJobsQueue 10
scalar FogSequentialForward.fog[88].server[0] droppedJobsTimout 0
scalar FogSequentialForward.fog[88].server[0] droppedJobsSLA 5798
scalar FogSequentialForward.fog[88].server[0] droppedJobsTotal 5808
scalar FogSequentialForward.fog[89].dispatcher localJobs 9017
scalar FogSequentialForward.fog[89].dispatcher internalJobs 9097
scalar FogSequentialForward.fog[89].dispatcher externalJobs 568
scalar FogSequentialForward.fog[89].dispatcher remoteJobs 648
scalar FogSequentialForward.fog[89].dispatcher probeQueries 0
scalar FogSequentialForward.fog[89].dispatcher probeAnswers 0
scalar FogSequentialForward.fog[89].dispatcher droppedJobsSLA 0
scalar FogSequentialForward.fog[89].dispatcher jobs_class_1 9665
scalar FogSequentialForward.fog[89].dispatcher remoteJobs_class_1 648
scalar FogSequentialForward.fog[89].dispatcher localJobs_class_1 9017
scalar FogSequentialForward.fog[89].server[0] rho 0.99939405918121
scalar FogSequentialForward.fog[89].server[0] congestionRatio 0
scalar FogSequentialForward.fog[89].server[0] totalJobs 9017
scalar FogSequentialForward.fog[89].server[0] droppedJobsQueue 14
scalar FogSequentialForward.fog[89].server[0] droppedJobsTimout 0
scalar FogSequentialForward.fog[89].server[0] droppedJobsSLA 5675
scalar FogSequentialForward.fog[89].server[0] droppedJobsTotal 5689
scalar FogSequentialForward.fog[90].dispatcher localJobs 8986
scalar FogSequentialForward.fog[90].dispatcher internalJobs 8955
scalar FogSequentialForward.fog[90].dispatcher externalJobs 621
scalar FogSequentialForward.fog[90].dispatcher remoteJobs 590
scalar FogSequentialForward.fog[90].dispatcher probeQueries 0
scalar FogSequentialForward.fog[90].dispatcher probeAnswers 0
scalar FogSequentialForward.fog[90].dispatcher droppedJobsSLA 0
scalar FogSequentialForward.fog[90].dispatcher jobs_class_1 9576
scalar FogSequentialForward.fog[90].dispatcher remoteJobs_class_1 590
scalar FogSequentialForward.fog[90].dispatcher localJobs_class_1 8986
scalar FogSequentialForward.fog[90].server[0] rho 1
scalar FogSequentialForward.fog[90].server[0] congestionRatio 0
scalar FogSequentialForward.fog[90].server[0] totalJobs 8986
scalar FogSequentialForward.fog[90].server[0] droppedJobsQueue 12
scalar FogSequentialForward.fog[90].server[0] droppedJobsTimout 0
scalar FogSequentialForward.fog[90].server[0] droppedJobsSLA 5588
scalar FogSequentialForward.fog[90].server[0] droppedJobsTotal 5600
scalar FogSequentialForward.fog[91].dispatcher localJobs 8986
scalar FogSequentialForward.fog[91].dispatcher internalJobs 8996
scalar FogSequentialForward.fog[91].dispatcher externalJobs 562
scalar FogSequentialForward.fog[91].dispatcher remoteJobs 572
scalar FogSequentialForward.fog[91].dispatcher probeQueries 0
scalar FogSequentialForward.fog[91].dispatcher probeAnswers 0
scalar FogSequentialForward.fog[91].dispatcher droppedJobsSLA 0
scalar FogSequentialForward.fog[91].dispatcher jobs_class_1 9558
scalar FogSequentialForward.fog[91].dispatcher remoteJobs_class_1 572
scalar FogSequentialForward.fog[91].dispatcher localJobs_class_1 8986
scalar FogSequentialForward.fog[91].server[0] rho 0.99991810321808
scalar FogSequentialForward.fog[91].server[0] congestionRatio 0
scalar FogSequentialForward.fog[91].server[0] totalJobs 8986
scalar FogSequentialForward.fog[91].server[0] droppedJobsQueue 12
scalar FogSequentialForward.fog[91].server[0] droppedJobsTimout 0
scalar FogSequentialForward.fog[91].server[0] droppedJobsSLA 5650
scalar FogSequentialForward.fog[91].server[0] droppedJobsTotal 5662
scalar FogSequentialForward.fog[92].dispatcher localJobs 9122
scalar FogSequentialForward.fog[92].dispatcher internalJobs 9131
scalar FogSequentialForward.fog[92].dispatcher externalJobs 628
scalar FogSequentialForward.fog[92].dispatcher remoteJobs 637
scalar FogSequentialForward.fog[92].dispatcher probeQueries 0
scalar FogSequentialForward.fog[92].dispatcher probeAnswers 0
scalar FogSequentialForward.fog[92].dispatcher droppedJobsSLA 0
scalar FogSequentialForward.fog[92].dispatcher jobs_class_1 9759
scalar FogSequentialForward.fog[92].dispatcher remoteJobs_class_1 637
scalar FogSequentialForward.fog[92].dispatcher localJobs_class_1 9122
scalar FogSequentialForward.fog[92].server[0] rho 1
scalar FogSequentialForward.fog[92].server[0] congestionRatio 0
scalar FogSequentialForward.fog[92].server[0] totalJobs 9122
scalar FogSequentialForward.fog[92].server[0] droppedJobsQueue 9
scalar FogSequentialForward.fog[92].server[0] droppedJobsTimout 0
scalar FogSequentialForward.fog[92].server[0] droppedJobsSLA 5813
scalar FogSequentialForward.fog[92].server[0] droppedJobsTotal 5822
scalar FogSequentialForward.fog[93].dispatcher localJobs 9026
scalar FogSequentialForward.fog[93].dispatcher internalJobs 8978
scalar FogSequentialForward.fog[93].dispatcher externalJobs 597
scalar FogSequentialForward.fog[93].dispatcher remoteJobs 549
scalar FogSequentialForward.fog[93].dispatcher probeQueries 0
scalar FogSequentialForward.fog[93].dispatcher probeAnswers 0
scalar FogSequentialForward.fog[93].dispatcher droppedJobsSLA 0
scalar FogSequentialForward.fog[93].dispatcher jobs_class_1 9575
scalar FogSequentialForward.fog[93].dispatcher remoteJobs_class_1 549
scalar FogSequentialForward.fog[93].dispatcher localJobs_class_1 9026
scalar FogSequentialForward.fog[93].server[0] rho 1
scalar FogSequentialForward.fog[93].server[0] congestionRatio 0
scalar FogSequentialForward.fog[93].server[0] totalJobs 9026
scalar FogSequentialForward.fog[93].server[0] droppedJobsQueue 10
scalar FogSequentialForward.fog[93].server[0] droppedJobsTimout 0
scalar FogSequentialForward.fog[93].server[0] droppedJobsSLA 5704
scalar FogSequentialForward.fog[93].server[0] droppedJobsTotal 5714
scalar FogSequentialForward.fog[94].dispatcher localJobs 9001
scalar FogSequentialForward.fog[94].dispatcher internalJobs 8923
scalar FogSequentialForward.fog[94].dispatcher externalJobs 612
scalar FogSequentialForward.fog[94].dispatcher remoteJobs 534
scalar FogSequentialForward.fog[94].dispatcher probeQueries 0
scalar FogSequentialForward.fog[94].dispatcher probeAnswers 0
scalar FogSequentialForward.fog[94].dispatcher droppedJobsSLA 0
scalar FogSequentialForward.fog[94].dispatcher jobs_class_1 9535
scalar FogSequentialForward.fog[94].dispatcher remoteJobs_class_1 534
scalar FogSequentialForward.fog[94].dispatcher localJobs_class_1 9001
scalar FogSequentialForward.fog[94].server[0] rho 1
scalar FogSequentialForward.fog[94].server[0] congestionRatio 0
scalar FogSequentialForward.fog[94].server[0] totalJobs 9001
scalar FogSequentialForward.fog[94].server[0] droppedJobsQueue 11
scalar FogSequentialForward.fog[94].server[0] droppedJobsTimout 0
scalar FogSequentialForward.fog[94].server[0] droppedJobsSLA 5566
scalar FogSequentialForward.fog[94].server[0] droppedJobsTotal 5577
scalar FogSequentialForward.fog[95].dispatcher localJobs 9116
scalar FogSequentialForward.fog[95].dispatcher internalJobs 9132
scalar FogSequentialForward.fog[95].dispatcher externalJobs 591
scalar FogSequentialForward.fog[95].dispatcher remoteJobs 607
scalar FogSequentialForward.fog[95].dispatcher probeQueries 0
scalar FogSequentialForward.fog[95].dispatcher probeAnswers 0
scalar FogSequentialForward.fog[95].dispatcher droppedJobsSLA 0
scalar FogSequentialForward.fog[95].dispatcher jobs_class_1 9723
scalar FogSequentialForward.fog[95].dispatcher remoteJobs_class_1 607
scalar FogSequentialForward.fog[95].dispatcher localJobs_class_1 9116
scalar FogSequentialForward.fog[95].server[0] rho 0.99988806247711
scalar FogSequentialForward.fog[95].server[0] congestionRatio 0
scalar FogSequentialForward.fog[95].server[0] totalJobs 9116
scalar FogSequentialForward.fog[95].server[0] droppedJobsQueue 11
scalar FogSequentialForward.fog[95].server[0] droppedJobsTimout 0
scalar FogSequentialForward.fog[95].server[0] droppedJobsSLA 5920
scalar FogSequentialForward.fog[95].server[0] droppedJobsTotal 5931
scalar FogSequentialForward.fog[96].dispatcher localJobs 9054
scalar FogSequentialForward.fog[96].dispatcher internalJobs 9084
scalar FogSequentialForward.fog[96].dispatcher externalJobs 582
scalar FogSequentialForward.fog[96].dispatcher remoteJobs 612
scalar FogSequentialForward.fog[96].dispatcher probeQueries 0
scalar FogSequentialForward.fog[96].dispatcher probeAnswers 0
scalar FogSequentialForward.fog[96].dispatcher droppedJobsSLA 0
scalar FogSequentialForward.fog[96].dispatcher jobs_class_1 9666
scalar FogSequentialForward.fog[96].dispatcher remoteJobs_class_1 612
scalar FogSequentialForward.fog[96].dispatcher localJobs_class_1 9054
scalar FogSequentialForward.fog[96].server[0] rho 0.99992400407791
scalar FogSequentialForward.fog[96].server[0] congestionRatio 0
scalar FogSequentialForward.fog[96].server[0] totalJobs 9054
scalar FogSequentialForward.fog[96].server[0] droppedJobsQueue 19
scalar FogSequentialForward.fog[96].server[0] droppedJobsTimout 0
scalar FogSequentialForward.fog[96].server[0] droppedJobsSLA 5710
scalar FogSequentialForward.fog[96].server[0] droppedJobsTotal 5729
scalar FogSequentialForward.fog[97].dispatcher localJobs 9055
scalar FogSequentialForward.fog[97].dispatcher internalJobs 9047
scalar FogSequentialForward.fog[97].dispatcher externalJobs 602
scalar FogSequentialForward.fog[97].dispatcher remoteJobs 594
scalar FogSequentialForward.fog[97].dispatcher probeQueries 0
scalar FogSequentialForward.fog[97].dispatcher probeAnswers 0
scalar FogSequentialForward.fog[97].dispatcher droppedJobsSLA 0
scalar FogSequentialForward.fog[97].dispatcher jobs_class_1 9649
scalar FogSequentialForward.fog[97].dispatcher remoteJobs_class_1 594
scalar FogSequentialForward.fog[97].dispatcher localJobs_class_1 9055
scalar FogSequentialForward.fog[97].server[0] rho 0.99948310852051
scalar FogSequentialForward.fog[97].server[0] congestionRatio 0
scalar FogSequentialForward.fog[97].server[0] totalJobs 9055
scalar FogSequentialForward.fog[97].server[0] droppedJobsQueue 16
scalar FogSequentialForward.fog[97].server[0] droppedJobsTimout 0
scalar FogSequentialForward.fog[97].server[0] droppedJobsSLA 5724
scalar FogSequentialForward.fog[97].server[0] droppedJobsTotal 5740
scalar FogSequentialForward.fog[98].dispatcher localJobs 8989
scalar FogSequentialForward.fog[98].dispatcher internalJobs 8955
scalar FogSequentialForward.fog[98].dispatcher externalJobs 583
scalar FogSequentialForward.fog[98].dispatcher remoteJobs 549
scalar FogSequentialForward.fog[98].dispatcher probeQueries 0
scalar FogSequentialForward.fog[98].dispatcher probeAnswers 0
scalar FogSequentialForward.fog[98].dispatcher droppedJobsSLA 0
scalar FogSequentialForward.fog[98].dispatcher jobs_class_1 9538
scalar FogSequentialForward.fog[98].dispatcher remoteJobs_class_1 549
scalar FogSequentialForward.fog[98].dispatcher localJobs_class_1 8989
scalar FogSequentialForward.fog[98].server[0] rho 1
scalar FogSequentialForward.fog[98].server[0] congestionRatio 0
scalar FogSequentialForward.fog[98].server[0] totalJobs 8989
scalar FogSequentialForward.fog[98].server[0] droppedJobsQueue 8
scalar FogSequentialForward.fog[98].server[0] droppedJobsTimout 0
scalar FogSequentialForward.fog[98].server[0] droppedJobsSLA 5664
scalar FogSequentialForward.fog[98].server[0] droppedJobsTotal 5672
scalar FogSequentialForward.fog[99].dispatcher localJobs 9011
scalar FogSequentialForward.fog[99].dispatcher internalJobs 8976
scalar FogSequentialForward.fog[99].dispatcher externalJobs 574
scalar FogSequentialForward.fog[99].dispatcher remoteJobs 539
scalar FogSequentialForward.fog[99].dispatcher probeQueries 0
scalar FogSequentialForward.fog[99].dispatcher probeAnswers 0
scalar FogSequentialForward.fog[99].dispatcher droppedJobsSLA 0
scalar FogSequentialForward.fog[99].dispatcher jobs_class_1 9550
scalar FogSequentialForward.fog[99].dispatcher remoteJobs_class_1 539
scalar FogSequentialForward.fog[99].dispatcher localJobs_class_1 9011
scalar FogSequentialForward.fog[99].server[0] rho 0.99964493513107
scalar FogSequentialForward.fog[99].server[0] congestionRatio 0
scalar FogSequentialForward.fog[99].server[0] totalJobs 9011
scalar FogSequentialForward.fog[99].server[0] droppedJobsQueue 16
scalar FogSequentialForward.fog[99].server[0] droppedJobsTimout 0
scalar FogSequentialForward.fog[99].server[0] droppedJobsSLA 5689
scalar FogSequentialForward.fog[99].server[0] droppedJobsTotal 5705
scalar FogSequentialForward.sink avg_responseTime_1 14.5831426026
scalar FogSequentialForward.sink p90_responseTime_1 1.580256354744
scalar FogSequentialForward.sink med_responseTime_1 1.580256354744
scalar FogSequentialForward.sink avg_delayTime_1 0
scalar FogSequentialForward.sink p90_delayTime_1 0
scalar FogSequentialForward.sink med_delayTime_1 0
scalar FogSequentialForward.sink avg_queuingTime_1 12.907144656694
scalar FogSequentialForward.sink p90_queuingTime_1 0
scalar FogSequentialForward.sink med_queuingTime_1 0
scalar FogSequentialForward.sink avg_serviceTime_1 1.6749262540783
scalar FogSequentialForward.sink p90_serviceTime_1 1.508733457905
scalar FogSequentialForward.sink med_serviceTime_1 1.508733457905
scalar FogSequentialForward.sink avg_balancerTime_1 0.0010716918270169
scalar FogSequentialForward.sink p90_balancerTime_1 0
scalar FogSequentialForward.sink med_balancerTime_1 0
scalar FogSequentialForward.sink avg_balancerCount_1 1.0641731632944
scalar FogSequentialForward.sink p90_balancerCount_1 1
scalar FogSequentialForward.sink med_balancerCount_1 1

