version 2
run Fog-mul_10-rho_05-thr_15-0-20190714-02:24:51-91100
attr configname Fog-mul_10-rho_05-thr_15
attr datetime 20190714-02:24:51
attr experiment Fog-mul_10-rho_05-thr_15
attr inifile FogSequentialForward.ini
attr iterationvars ""
attr iterationvarsf ""
attr measurement ""
attr network FogSequentialForward
attr processid 91100
attr repetition 0
attr replication #0
attr resultdir results
attr runnumber 0
attr seedset 0
param FogSequentialForward.proctimeMul 1.0
param FogSequentialForward.rho 0.5
param FogSequentialForward.fog[*].dispatcher.thr 15
param FogSequentialForward.nSources 100
param FogSequentialForward.rho 0.9
param FogSequentialForward.proctimeMul 1.0
param FogSequentialForward.source[*].appId 1
param FogSequentialForward.source[*].realTime true
param FogSequentialForward.source[*].multiHop true
param FogSequentialForward.fog[*].nServers 1
param FogSequentialForward.fog[*].dispatcher.fanOut 1
param FogSequentialForward.fog[*].server[*].timeSlice -1s
param FogSequentialForward.fog[*].server[*].timeout -1s
param FogSequentialForward.fog[*].server[*].capacity 20
param FogSequentialForward.fog[*].server[*].fifo true
param FogSequentialForward.fog[*].server[*].maxServiceTime -1s
param FogSequentialForward.fog[*].dispatcher.thr 1

scalar FogSequentialForward.fog[0].dispatcher localJobs 8993
scalar FogSequentialForward.fog[0].dispatcher internalJobs 9041
scalar FogSequentialForward.fog[0].dispatcher externalJobs 5462
scalar FogSequentialForward.fog[0].dispatcher remoteJobs 5510
scalar FogSequentialForward.fog[0].dispatcher probeQueries 0
scalar FogSequentialForward.fog[0].dispatcher probeAnswers 0
scalar FogSequentialForward.fog[0].dispatcher droppedJobsSLA 0
scalar FogSequentialForward.fog[0].dispatcher jobs_class_1 14503
scalar FogSequentialForward.fog[0].dispatcher remoteJobs_class_1 5510
scalar FogSequentialForward.fog[0].dispatcher localJobs_class_1 8993
scalar FogSequentialForward.fog[0].server[0] rho 0.99994301795959
scalar FogSequentialForward.fog[0].server[0] congestionRatio 0
scalar FogSequentialForward.fog[0].server[0] totalJobs 8993
scalar FogSequentialForward.fog[0].server[0] droppedJobsQueue 4
scalar FogSequentialForward.fog[0].server[0] droppedJobsTimout 0
scalar FogSequentialForward.fog[0].server[0] droppedJobsSLA 5152
scalar FogSequentialForward.fog[0].server[0] droppedJobsTotal 5156
scalar FogSequentialForward.fog[1].dispatcher localJobs 8981
scalar FogSequentialForward.fog[1].dispatcher internalJobs 8918
scalar FogSequentialForward.fog[1].dispatcher externalJobs 5382
scalar FogSequentialForward.fog[1].dispatcher remoteJobs 5319
scalar FogSequentialForward.fog[1].dispatcher probeQueries 0
scalar FogSequentialForward.fog[1].dispatcher probeAnswers 0
scalar FogSequentialForward.fog[1].dispatcher droppedJobsSLA 0
scalar FogSequentialForward.fog[1].dispatcher jobs_class_1 14300
scalar FogSequentialForward.fog[1].dispatcher remoteJobs_class_1 5319
scalar FogSequentialForward.fog[1].dispatcher localJobs_class_1 8981
scalar FogSequentialForward.fog[1].server[0] rho 0.9997216463089
scalar FogSequentialForward.fog[1].server[0] congestionRatio 0
scalar FogSequentialForward.fog[1].server[0] totalJobs 8981
scalar FogSequentialForward.fog[1].server[0] droppedJobsQueue 1
scalar FogSequentialForward.fog[1].server[0] droppedJobsTimout 0
scalar FogSequentialForward.fog[1].server[0] droppedJobsSLA 5125
scalar FogSequentialForward.fog[1].server[0] droppedJobsTotal 5126
scalar FogSequentialForward.fog[2].dispatcher localJobs 9013
scalar FogSequentialForward.fog[2].dispatcher internalJobs 8850
scalar FogSequentialForward.fog[2].dispatcher externalJobs 5452
scalar FogSequentialForward.fog[2].dispatcher remoteJobs 5289
scalar FogSequentialForward.fog[2].dispatcher probeQueries 0
scalar FogSequentialForward.fog[2].dispatcher probeAnswers 0
scalar FogSequentialForward.fog[2].dispatcher droppedJobsSLA 0
scalar FogSequentialForward.fog[2].dispatcher jobs_class_1 14302
scalar FogSequentialForward.fog[2].dispatcher remoteJobs_class_1 5289
scalar FogSequentialForward.fog[2].dispatcher localJobs_class_1 9013
scalar FogSequentialForward.fog[2].server[0] rho 1
scalar FogSequentialForward.fog[2].server[0] congestionRatio 0
scalar FogSequentialForward.fog[2].server[0] totalJobs 9013
scalar FogSequentialForward.fog[2].server[0] droppedJobsQueue 0
scalar FogSequentialForward.fog[2].server[0] droppedJobsTimout 0
scalar FogSequentialForward.fog[2].server[0] droppedJobsSLA 5164
scalar FogSequentialForward.fog[2].server[0] droppedJobsTotal 5164
scalar FogSequentialForward.fog[3].dispatcher localJobs 9004
scalar FogSequentialForward.fog[3].dispatcher internalJobs 9059
scalar FogSequentialForward.fog[3].dispatcher externalJobs 5454
scalar FogSequentialForward.fog[3].dispatcher remoteJobs 5509
scalar FogSequentialForward.fog[3].dispatcher probeQueries 0
scalar FogSequentialForward.fog[3].dispatcher probeAnswers 0
scalar FogSequentialForward.fog[3].dispatcher droppedJobsSLA 0
scalar FogSequentialForward.fog[3].dispatcher jobs_class_1 14513
scalar FogSequentialForward.fog[3].dispatcher remoteJobs_class_1 5509
scalar FogSequentialForward.fog[3].dispatcher localJobs_class_1 9004
scalar FogSequentialForward.fog[3].server[0] rho 0.99990141391754
scalar FogSequentialForward.fog[3].server[0] congestionRatio 0
scalar FogSequentialForward.fog[3].server[0] totalJobs 9004
scalar FogSequentialForward.fog[3].server[0] droppedJobsQueue 1
scalar FogSequentialForward.fog[3].server[0] droppedJobsTimout 0
scalar FogSequentialForward.fog[3].server[0] droppedJobsSLA 5185
scalar FogSequentialForward.fog[3].server[0] droppedJobsTotal 5186
scalar FogSequentialForward.fog[4].dispatcher localJobs 8997
scalar FogSequentialForward.fog[4].dispatcher internalJobs 9169
scalar FogSequentialForward.fog[4].dispatcher externalJobs 5226
scalar FogSequentialForward.fog[4].dispatcher remoteJobs 5398
scalar FogSequentialForward.fog[4].dispatcher probeQueries 0
scalar FogSequentialForward.fog[4].dispatcher probeAnswers 0
scalar FogSequentialForward.fog[4].dispatcher droppedJobsSLA 0
scalar FogSequentialForward.fog[4].dispatcher jobs_class_1 14395
scalar FogSequentialForward.fog[4].dispatcher remoteJobs_class_1 5398
scalar FogSequentialForward.fog[4].dispatcher localJobs_class_1 8997
scalar FogSequentialForward.fog[4].server[0] rho 0.99949258565903
scalar FogSequentialForward.fog[4].server[0] congestionRatio 0
scalar FogSequentialForward.fog[4].server[0] totalJobs 8997
scalar FogSequentialForward.fog[4].server[0] droppedJobsQueue 2
scalar FogSequentialForward.fog[4].server[0] droppedJobsTimout 0
scalar FogSequentialForward.fog[4].server[0] droppedJobsSLA 5155
scalar FogSequentialForward.fog[4].server[0] droppedJobsTotal 5157
scalar FogSequentialForward.fog[5].dispatcher localJobs 9053
scalar FogSequentialForward.fog[5].dispatcher internalJobs 9039
scalar FogSequentialForward.fog[5].dispatcher externalJobs 5410
scalar FogSequentialForward.fog[5].dispatcher remoteJobs 5396
scalar FogSequentialForward.fog[5].dispatcher probeQueries 0
scalar FogSequentialForward.fog[5].dispatcher probeAnswers 0
scalar FogSequentialForward.fog[5].dispatcher droppedJobsSLA 0
scalar FogSequentialForward.fog[5].dispatcher jobs_class_1 14449
scalar FogSequentialForward.fog[5].dispatcher remoteJobs_class_1 5396
scalar FogSequentialForward.fog[5].dispatcher localJobs_class_1 9053
scalar FogSequentialForward.fog[5].server[0] rho 1
scalar FogSequentialForward.fog[5].server[0] congestionRatio 0
scalar FogSequentialForward.fog[5].server[0] totalJobs 9053
scalar FogSequentialForward.fog[5].server[0] droppedJobsQueue 2
scalar FogSequentialForward.fog[5].server[0] droppedJobsTimout 0
scalar FogSequentialForward.fog[5].server[0] droppedJobsSLA 5179
scalar FogSequentialForward.fog[5].server[0] droppedJobsTotal 5181
scalar FogSequentialForward.fog[6].dispatcher localJobs 9024
scalar FogSequentialForward.fog[6].dispatcher internalJobs 9189
scalar FogSequentialForward.fog[6].dispatcher externalJobs 5422
scalar FogSequentialForward.fog[6].dispatcher remoteJobs 5587
scalar FogSequentialForward.fog[6].dispatcher probeQueries 0
scalar FogSequentialForward.fog[6].dispatcher probeAnswers 0
scalar FogSequentialForward.fog[6].dispatcher droppedJobsSLA 0
scalar FogSequentialForward.fog[6].dispatcher jobs_class_1 14611
scalar FogSequentialForward.fog[6].dispatcher remoteJobs_class_1 5587
scalar FogSequentialForward.fog[6].dispatcher localJobs_class_1 9024
scalar FogSequentialForward.fog[6].server[0] rho 0.99960952997208
scalar FogSequentialForward.fog[6].server[0] congestionRatio 0
scalar FogSequentialForward.fog[6].server[0] totalJobs 9024
scalar FogSequentialForward.fog[6].server[0] droppedJobsQueue 1
scalar FogSequentialForward.fog[6].server[0] droppedJobsTimout 0
scalar FogSequentialForward.fog[6].server[0] droppedJobsSLA 5247
scalar FogSequentialForward.fog[6].server[0] droppedJobsTotal 5248
scalar FogSequentialForward.fog[7].dispatcher localJobs 9010
scalar FogSequentialForward.fog[7].dispatcher internalJobs 8908
scalar FogSequentialForward.fog[7].dispatcher externalJobs 5461
scalar FogSequentialForward.fog[7].dispatcher remoteJobs 5359
scalar FogSequentialForward.fog[7].dispatcher probeQueries 0
scalar FogSequentialForward.fog[7].dispatcher probeAnswers 0
scalar FogSequentialForward.fog[7].dispatcher droppedJobsSLA 0
scalar FogSequentialForward.fog[7].dispatcher jobs_class_1 14369
scalar FogSequentialForward.fog[7].dispatcher remoteJobs_class_1 5359
scalar FogSequentialForward.fog[7].dispatcher localJobs_class_1 9010
scalar FogSequentialForward.fog[7].server[0] rho 1
scalar FogSequentialForward.fog[7].server[0] congestionRatio 0
scalar FogSequentialForward.fog[7].server[0] totalJobs 9010
scalar FogSequentialForward.fog[7].server[0] droppedJobsQueue 4
scalar FogSequentialForward.fog[7].server[0] droppedJobsTimout 0
scalar FogSequentialForward.fog[7].server[0] droppedJobsSLA 5208
scalar FogSequentialForward.fog[7].server[0] droppedJobsTotal 5212
scalar FogSequentialForward.fog[8].dispatcher localJobs 8976
scalar FogSequentialForward.fog[8].dispatcher internalJobs 8898
scalar FogSequentialForward.fog[8].dispatcher externalJobs 5468
scalar FogSequentialForward.fog[8].dispatcher remoteJobs 5390
scalar FogSequentialForward.fog[8].dispatcher probeQueries 0
scalar FogSequentialForward.fog[8].dispatcher probeAnswers 0
scalar FogSequentialForward.fog[8].dispatcher droppedJobsSLA 0
scalar FogSequentialForward.fog[8].dispatcher jobs_class_1 14366
scalar FogSequentialForward.fog[8].dispatcher remoteJobs_class_1 5390
scalar FogSequentialForward.fog[8].dispatcher localJobs_class_1 8976
scalar FogSequentialForward.fog[8].server[0] rho 0.99983316659927
scalar FogSequentialForward.fog[8].server[0] congestionRatio 0
scalar FogSequentialForward.fog[8].server[0] totalJobs 8976
scalar FogSequentialForward.fog[8].server[0] droppedJobsQueue 1
scalar FogSequentialForward.fog[8].server[0] droppedJobsTimout 0
scalar FogSequentialForward.fog[8].server[0] droppedJobsSLA 5245
scalar FogSequentialForward.fog[8].server[0] droppedJobsTotal 5246
scalar FogSequentialForward.fog[9].dispatcher localJobs 9049
scalar FogSequentialForward.fog[9].dispatcher internalJobs 9010
scalar FogSequentialForward.fog[9].dispatcher externalJobs 5518
scalar FogSequentialForward.fog[9].dispatcher remoteJobs 5479
scalar FogSequentialForward.fog[9].dispatcher probeQueries 0
scalar FogSequentialForward.fog[9].dispatcher probeAnswers 0
scalar FogSequentialForward.fog[9].dispatcher droppedJobsSLA 0
scalar FogSequentialForward.fog[9].dispatcher jobs_class_1 14528
scalar FogSequentialForward.fog[9].dispatcher remoteJobs_class_1 5479
scalar FogSequentialForward.fog[9].dispatcher localJobs_class_1 9049
scalar FogSequentialForward.fog[9].server[0] rho 1
scalar FogSequentialForward.fog[9].server[0] congestionRatio 0
scalar FogSequentialForward.fog[9].server[0] totalJobs 9049
scalar FogSequentialForward.fog[9].server[0] droppedJobsQueue 0
scalar FogSequentialForward.fog[9].server[0] droppedJobsTimout 0
scalar FogSequentialForward.fog[9].server[0] droppedJobsSLA 5297
scalar FogSequentialForward.fog[9].server[0] droppedJobsTotal 5297
scalar FogSequentialForward.fog[10].dispatcher localJobs 9010
scalar FogSequentialForward.fog[10].dispatcher internalJobs 9001
scalar FogSequentialForward.fog[10].dispatcher externalJobs 5521
scalar FogSequentialForward.fog[10].dispatcher remoteJobs 5512
scalar FogSequentialForward.fog[10].dispatcher probeQueries 0
scalar FogSequentialForward.fog[10].dispatcher probeAnswers 0
scalar FogSequentialForward.fog[10].dispatcher droppedJobsSLA 0
scalar FogSequentialForward.fog[10].dispatcher jobs_class_1 14522
scalar FogSequentialForward.fog[10].dispatcher remoteJobs_class_1 5512
scalar FogSequentialForward.fog[10].dispatcher localJobs_class_1 9010
scalar FogSequentialForward.fog[10].server[0] rho 1
scalar FogSequentialForward.fog[10].server[0] congestionRatio 0
scalar FogSequentialForward.fog[10].server[0] totalJobs 9010
scalar FogSequentialForward.fog[10].server[0] droppedJobsQueue 2
scalar FogSequentialForward.fog[10].server[0] droppedJobsTimout 0
scalar FogSequentialForward.fog[10].server[0] droppedJobsSLA 5189
scalar FogSequentialForward.fog[10].server[0] droppedJobsTotal 5191
scalar FogSequentialForward.fog[11].dispatcher localJobs 9039
scalar FogSequentialForward.fog[11].dispatcher internalJobs 8957
scalar FogSequentialForward.fog[11].dispatcher externalJobs 5393
scalar FogSequentialForward.fog[11].dispatcher remoteJobs 5311
scalar FogSequentialForward.fog[11].dispatcher probeQueries 0
scalar FogSequentialForward.fog[11].dispatcher probeAnswers 0
scalar FogSequentialForward.fog[11].dispatcher droppedJobsSLA 0
scalar FogSequentialForward.fog[11].dispatcher jobs_class_1 14350
scalar FogSequentialForward.fog[11].dispatcher remoteJobs_class_1 5311
scalar FogSequentialForward.fog[11].dispatcher localJobs_class_1 9039
scalar FogSequentialForward.fog[11].server[0] rho 0.99980688095093
scalar FogSequentialForward.fog[11].server[0] congestionRatio 0
scalar FogSequentialForward.fog[11].server[0] totalJobs 9039
scalar FogSequentialForward.fog[11].server[0] droppedJobsQueue 1
scalar FogSequentialForward.fog[11].server[0] droppedJobsTimout 0
scalar FogSequentialForward.fog[11].server[0] droppedJobsSLA 5160
scalar FogSequentialForward.fog[11].server[0] droppedJobsTotal 5161
scalar FogSequentialForward.fog[12].dispatcher localJobs 8980
scalar FogSequentialForward.fog[12].dispatcher internalJobs 8965
scalar FogSequentialForward.fog[12].dispatcher externalJobs 5463
scalar FogSequentialForward.fog[12].dispatcher remoteJobs 5448
scalar FogSequentialForward.fog[12].dispatcher probeQueries 0
scalar FogSequentialForward.fog[12].dispatcher probeAnswers 0
scalar FogSequentialForward.fog[12].dispatcher droppedJobsSLA 0
scalar FogSequentialForward.fog[12].dispatcher jobs_class_1 14428
scalar FogSequentialForward.fog[12].dispatcher remoteJobs_class_1 5448
scalar FogSequentialForward.fog[12].dispatcher localJobs_class_1 8980
scalar FogSequentialForward.fog[12].server[0] rho 0.99969446659088
scalar FogSequentialForward.fog[12].server[0] congestionRatio 0
scalar FogSequentialForward.fog[12].server[0] totalJobs 8980
scalar FogSequentialForward.fog[12].server[0] droppedJobsQueue 0
scalar FogSequentialForward.fog[12].server[0] droppedJobsTimout 0
scalar FogSequentialForward.fog[12].server[0] droppedJobsSLA 5213
scalar FogSequentialForward.fog[12].server[0] droppedJobsTotal 5213
scalar FogSequentialForward.fog[13].dispatcher localJobs 9041
scalar FogSequentialForward.fog[13].dispatcher internalJobs 9053
scalar FogSequentialForward.fog[13].dispatcher externalJobs 5406
scalar FogSequentialForward.fog[13].dispatcher remoteJobs 5418
scalar FogSequentialForward.fog[13].dispatcher probeQueries 0
scalar FogSequentialForward.fog[13].dispatcher probeAnswers 0
scalar FogSequentialForward.fog[13].dispatcher droppedJobsSLA 0
scalar FogSequentialForward.fog[13].dispatcher jobs_class_1 14459
scalar FogSequentialForward.fog[13].dispatcher remoteJobs_class_1 5418
scalar FogSequentialForward.fog[13].dispatcher localJobs_class_1 9041
scalar FogSequentialForward.fog[13].server[0] rho 1
scalar FogSequentialForward.fog[13].server[0] congestionRatio 0
scalar FogSequentialForward.fog[13].server[0] totalJobs 9041
scalar FogSequentialForward.fog[13].server[0] droppedJobsQueue 2
scalar FogSequentialForward.fog[13].server[0] droppedJobsTimout 0
scalar FogSequentialForward.fog[13].server[0] droppedJobsSLA 5178
scalar FogSequentialForward.fog[13].server[0] droppedJobsTotal 5180
scalar FogSequentialForward.fog[14].dispatcher localJobs 9075
scalar FogSequentialForward.fog[14].dispatcher internalJobs 9074
scalar FogSequentialForward.fog[14].dispatcher externalJobs 5541
scalar FogSequentialForward.fog[14].dispatcher remoteJobs 5540
scalar FogSequentialForward.fog[14].dispatcher probeQueries 0
scalar FogSequentialForward.fog[14].dispatcher probeAnswers 0
scalar FogSequentialForward.fog[14].dispatcher droppedJobsSLA 0
scalar FogSequentialForward.fog[14].dispatcher jobs_class_1 14615
scalar FogSequentialForward.fog[14].dispatcher remoteJobs_class_1 5540
scalar FogSequentialForward.fog[14].dispatcher localJobs_class_1 9075
scalar FogSequentialForward.fog[14].server[0] rho 1
scalar FogSequentialForward.fog[14].server[0] congestionRatio 0
scalar FogSequentialForward.fog[14].server[0] totalJobs 9075
scalar FogSequentialForward.fog[14].server[0] droppedJobsQueue 1
scalar FogSequentialForward.fog[14].server[0] droppedJobsTimout 0
scalar FogSequentialForward.fog[14].server[0] droppedJobsSLA 5265
scalar FogSequentialForward.fog[14].server[0] droppedJobsTotal 5266
scalar FogSequentialForward.fog[15].dispatcher localJobs 9012
scalar FogSequentialForward.fog[15].dispatcher internalJobs 8990
scalar FogSequentialForward.fog[15].dispatcher externalJobs 5433
scalar FogSequentialForward.fog[15].dispatcher remoteJobs 5411
scalar FogSequentialForward.fog[15].dispatcher probeQueries 0
scalar FogSequentialForward.fog[15].dispatcher probeAnswers 0
scalar FogSequentialForward.fog[15].dispatcher droppedJobsSLA 0
scalar FogSequentialForward.fog[15].dispatcher jobs_class_1 14423
scalar FogSequentialForward.fog[15].dispatcher remoteJobs_class_1 5411
scalar FogSequentialForward.fog[15].dispatcher localJobs_class_1 9012
scalar FogSequentialForward.fog[15].server[0] rho 1
scalar FogSequentialForward.fog[15].server[0] congestionRatio 0
scalar FogSequentialForward.fog[15].server[0] totalJobs 9012
scalar FogSequentialForward.fog[15].server[0] droppedJobsQueue 1
scalar FogSequentialForward.fog[15].server[0] droppedJobsTimout 0
scalar FogSequentialForward.fog[15].server[0] droppedJobsSLA 5207
scalar FogSequentialForward.fog[15].server[0] droppedJobsTotal 5208
scalar FogSequentialForward.fog[16].dispatcher localJobs 9012
scalar FogSequentialForward.fog[16].dispatcher internalJobs 8942
scalar FogSequentialForward.fog[16].dispatcher externalJobs 5454
scalar FogSequentialForward.fog[16].dispatcher remoteJobs 5384
scalar FogSequentialForward.fog[16].dispatcher probeQueries 0
scalar FogSequentialForward.fog[16].dispatcher probeAnswers 0
scalar FogSequentialForward.fog[16].dispatcher droppedJobsSLA 0
scalar FogSequentialForward.fog[16].dispatcher jobs_class_1 14396
scalar FogSequentialForward.fog[16].dispatcher remoteJobs_class_1 5384
scalar FogSequentialForward.fog[16].dispatcher localJobs_class_1 9012
scalar FogSequentialForward.fog[16].server[0] rho 0.99992781877518
scalar FogSequentialForward.fog[16].server[0] congestionRatio 0
scalar FogSequentialForward.fog[16].server[0] totalJobs 9012
scalar FogSequentialForward.fog[16].server[0] droppedJobsQueue 3
scalar FogSequentialForward.fog[16].server[0] droppedJobsTimout 0
scalar FogSequentialForward.fog[16].server[0] droppedJobsSLA 5249
scalar FogSequentialForward.fog[16].server[0] droppedJobsTotal 5252
scalar FogSequentialForward.fog[17].dispatcher localJobs 9004
scalar FogSequentialForward.fog[17].dispatcher internalJobs 8962
scalar FogSequentialForward.fog[17].dispatcher externalJobs 5431
scalar FogSequentialForward.fog[17].dispatcher remoteJobs 5389
scalar FogSequentialForward.fog[17].dispatcher probeQueries 0
scalar FogSequentialForward.fog[17].dispatcher probeAnswers 0
scalar FogSequentialForward.fog[17].dispatcher droppedJobsSLA 0
scalar FogSequentialForward.fog[17].dispatcher jobs_class_1 14393
scalar FogSequentialForward.fog[17].dispatcher remoteJobs_class_1 5389
scalar FogSequentialForward.fog[17].dispatcher localJobs_class_1 9004
scalar FogSequentialForward.fog[17].server[0] rho 1
scalar FogSequentialForward.fog[17].server[0] congestionRatio 0
scalar FogSequentialForward.fog[17].server[0] totalJobs 9004
scalar FogSequentialForward.fog[17].server[0] droppedJobsQueue 4
scalar FogSequentialForward.fog[17].server[0] droppedJobsTimout 0
scalar FogSequentialForward.fog[17].server[0] droppedJobsSLA 5133
scalar FogSequentialForward.fog[17].server[0] droppedJobsTotal 5137
scalar FogSequentialForward.fog[18].dispatcher localJobs 8999
scalar FogSequentialForward.fog[18].dispatcher internalJobs 9110
scalar FogSequentialForward.fog[18].dispatcher externalJobs 5431
scalar FogSequentialForward.fog[18].dispatcher remoteJobs 5542
scalar FogSequentialForward.fog[18].dispatcher probeQueries 0
scalar FogSequentialForward.fog[18].dispatcher probeAnswers 0
scalar FogSequentialForward.fog[18].dispatcher droppedJobsSLA 0
scalar FogSequentialForward.fog[18].dispatcher jobs_class_1 14541
scalar FogSequentialForward.fog[18].dispatcher remoteJobs_class_1 5542
scalar FogSequentialForward.fog[18].dispatcher localJobs_class_1 8999
scalar FogSequentialForward.fog[18].server[0] rho 1
scalar FogSequentialForward.fog[18].server[0] congestionRatio 0
scalar FogSequentialForward.fog[18].server[0] totalJobs 8999
scalar FogSequentialForward.fog[18].server[0] droppedJobsQueue 3
scalar FogSequentialForward.fog[18].server[0] droppedJobsTimout 0
scalar FogSequentialForward.fog[18].server[0] droppedJobsSLA 5145
scalar FogSequentialForward.fog[18].server[0] droppedJobsTotal 5148
scalar FogSequentialForward.fog[19].dispatcher localJobs 9035
scalar FogSequentialForward.fog[19].dispatcher internalJobs 9083
scalar FogSequentialForward.fog[19].dispatcher externalJobs 5507
scalar FogSequentialForward.fog[19].dispatcher remoteJobs 5555
scalar FogSequentialForward.fog[19].dispatcher probeQueries 0
scalar FogSequentialForward.fog[19].dispatcher probeAnswers 0
scalar FogSequentialForward.fog[19].dispatcher droppedJobsSLA 0
scalar FogSequentialForward.fog[19].dispatcher jobs_class_1 14590
scalar FogSequentialForward.fog[19].dispatcher remoteJobs_class_1 5555
scalar FogSequentialForward.fog[19].dispatcher localJobs_class_1 9035
scalar FogSequentialForward.fog[19].server[0] rho 1
scalar FogSequentialForward.fog[19].server[0] congestionRatio 0
scalar FogSequentialForward.fog[19].server[0] totalJobs 9035
scalar FogSequentialForward.fog[19].server[0] droppedJobsQueue 0
scalar FogSequentialForward.fog[19].server[0] droppedJobsTimout 0
scalar FogSequentialForward.fog[19].server[0] droppedJobsSLA 5294
scalar FogSequentialForward.fog[19].server[0] droppedJobsTotal 5294
scalar FogSequentialForward.fog[20].dispatcher localJobs 9007
scalar FogSequentialForward.fog[20].dispatcher internalJobs 9078
scalar FogSequentialForward.fog[20].dispatcher externalJobs 5348
scalar FogSequentialForward.fog[20].dispatcher remoteJobs 5419
scalar FogSequentialForward.fog[20].dispatcher probeQueries 0
scalar FogSequentialForward.fog[20].dispatcher probeAnswers 0
scalar FogSequentialForward.fog[20].dispatcher droppedJobsSLA 0
scalar FogSequentialForward.fog[20].dispatcher jobs_class_1 14426
scalar FogSequentialForward.fog[20].dispatcher remoteJobs_class_1 5419
scalar FogSequentialForward.fog[20].dispatcher localJobs_class_1 9007
scalar FogSequentialForward.fog[20].server[0] rho 0.99997073411942
scalar FogSequentialForward.fog[20].server[0] congestionRatio 0
scalar FogSequentialForward.fog[20].server[0] totalJobs 9007
scalar FogSequentialForward.fog[20].server[0] droppedJobsQueue 3
scalar FogSequentialForward.fog[20].server[0] droppedJobsTimout 0
scalar FogSequentialForward.fog[20].server[0] droppedJobsSLA 5154
scalar FogSequentialForward.fog[20].server[0] droppedJobsTotal 5157
scalar FogSequentialForward.fog[21].dispatcher localJobs 8983
scalar FogSequentialForward.fog[21].dispatcher internalJobs 8982
scalar FogSequentialForward.fog[21].dispatcher externalJobs 5346
scalar FogSequentialForward.fog[21].dispatcher remoteJobs 5345
scalar FogSequentialForward.fog[21].dispatcher probeQueries 0
scalar FogSequentialForward.fog[21].dispatcher probeAnswers 0
scalar FogSequentialForward.fog[21].dispatcher droppedJobsSLA 0
scalar FogSequentialForward.fog[21].dispatcher jobs_class_1 14328
scalar FogSequentialForward.fog[21].dispatcher remoteJobs_class_1 5345
scalar FogSequentialForward.fog[21].dispatcher localJobs_class_1 8983
scalar FogSequentialForward.fog[21].server[0] rho 0.99982190132141
scalar FogSequentialForward.fog[21].server[0] congestionRatio 0
scalar FogSequentialForward.fog[21].server[0] totalJobs 8983
scalar FogSequentialForward.fog[21].server[0] droppedJobsQueue 0
scalar FogSequentialForward.fog[21].server[0] droppedJobsTimout 0
scalar FogSequentialForward.fog[21].server[0] droppedJobsSLA 5113
scalar FogSequentialForward.fog[21].server[0] droppedJobsTotal 5113
scalar FogSequentialForward.fog[22].dispatcher localJobs 9051
scalar FogSequentialForward.fog[22].dispatcher internalJobs 9141
scalar FogSequentialForward.fog[22].dispatcher externalJobs 5390
scalar FogSequentialForward.fog[22].dispatcher remoteJobs 5480
scalar FogSequentialForward.fog[22].dispatcher probeQueries 0
scalar FogSequentialForward.fog[22].dispatcher probeAnswers 0
scalar FogSequentialForward.fog[22].dispatcher droppedJobsSLA 0
scalar FogSequentialForward.fog[22].dispatcher jobs_class_1 14531
scalar FogSequentialForward.fog[22].dispatcher remoteJobs_class_1 5480
scalar FogSequentialForward.fog[22].dispatcher localJobs_class_1 9051
scalar FogSequentialForward.fog[22].server[0] rho 0.99999368190765
scalar FogSequentialForward.fog[22].server[0] congestionRatio 0
scalar FogSequentialForward.fog[22].server[0] totalJobs 9051
scalar FogSequentialForward.fog[22].server[0] droppedJobsQueue 2
scalar FogSequentialForward.fog[22].server[0] droppedJobsTimout 0
scalar FogSequentialForward.fog[22].server[0] droppedJobsSLA 5187
scalar FogSequentialForward.fog[22].server[0] droppedJobsTotal 5189
scalar FogSequentialForward.fog[23].dispatcher localJobs 9052
scalar FogSequentialForward.fog[23].dispatcher internalJobs 8957
scalar FogSequentialForward.fog[23].dispatcher externalJobs 5526
scalar FogSequentialForward.fog[23].dispatcher remoteJobs 5431
scalar FogSequentialForward.fog[23].dispatcher probeQueries 0
scalar FogSequentialForward.fog[23].dispatcher probeAnswers 0
scalar FogSequentialForward.fog[23].dispatcher droppedJobsSLA 0
scalar FogSequentialForward.fog[23].dispatcher jobs_class_1 14483
scalar FogSequentialForward.fog[23].dispatcher remoteJobs_class_1 5431
scalar FogSequentialForward.fog[23].dispatcher localJobs_class_1 9052
scalar FogSequentialForward.fog[23].server[0] rho 0.99960511922836
scalar FogSequentialForward.fog[23].server[0] congestionRatio 0
scalar FogSequentialForward.fog[23].server[0] totalJobs 9052
scalar FogSequentialForward.fog[23].server[0] droppedJobsQueue 0
scalar FogSequentialForward.fog[23].server[0] droppedJobsTimout 0
scalar FogSequentialForward.fog[23].server[0] droppedJobsSLA 5262
scalar FogSequentialForward.fog[23].server[0] droppedJobsTotal 5262
scalar FogSequentialForward.fog[24].dispatcher localJobs 8991
scalar FogSequentialForward.fog[24].dispatcher internalJobs 8914
scalar FogSequentialForward.fog[24].dispatcher externalJobs 5283
scalar FogSequentialForward.fog[24].dispatcher remoteJobs 5206
scalar FogSequentialForward.fog[24].dispatcher probeQueries 0
scalar FogSequentialForward.fog[24].dispatcher probeAnswers 0
scalar FogSequentialForward.fog[24].dispatcher droppedJobsSLA 0
scalar FogSequentialForward.fog[24].dispatcher jobs_class_1 14197
scalar FogSequentialForward.fog[24].dispatcher remoteJobs_class_1 5206
scalar FogSequentialForward.fog[24].dispatcher localJobs_class_1 8991
scalar FogSequentialForward.fog[24].server[0] rho 1
scalar FogSequentialForward.fog[24].server[0] congestionRatio 0
scalar FogSequentialForward.fog[24].server[0] totalJobs 8991
scalar FogSequentialForward.fog[24].server[0] droppedJobsQueue 1
scalar FogSequentialForward.fog[24].server[0] droppedJobsTimout 0
scalar FogSequentialForward.fog[24].server[0] droppedJobsSLA 5159
scalar FogSequentialForward.fog[24].server[0] droppedJobsTotal 5160
scalar FogSequentialForward.fog[25].dispatcher localJobs 9024
scalar FogSequentialForward.fog[25].dispatcher internalJobs 8964
scalar FogSequentialForward.fog[25].dispatcher externalJobs 5462
scalar FogSequentialForward.fog[25].dispatcher remoteJobs 5402
scalar FogSequentialForward.fog[25].dispatcher probeQueries 0
scalar FogSequentialForward.fog[25].dispatcher probeAnswers 0
scalar FogSequentialForward.fog[25].dispatcher droppedJobsSLA 0
scalar FogSequentialForward.fog[25].dispatcher jobs_class_1 14426
scalar FogSequentialForward.fog[25].dispatcher remoteJobs_class_1 5402
scalar FogSequentialForward.fog[25].dispatcher localJobs_class_1 9024
scalar FogSequentialForward.fog[25].server[0] rho 0.99979120492935
scalar FogSequentialForward.fog[25].server[0] congestionRatio 0
scalar FogSequentialForward.fog[25].server[0] totalJobs 9024
scalar FogSequentialForward.fog[25].server[0] droppedJobsQueue 2
scalar FogSequentialForward.fog[25].server[0] droppedJobsTimout 0
scalar FogSequentialForward.fog[25].server[0] droppedJobsSLA 5226
scalar FogSequentialForward.fog[25].server[0] droppedJobsTotal 5228
scalar FogSequentialForward.fog[26].dispatcher localJobs 9006
scalar FogSequentialForward.fog[26].dispatcher internalJobs 8865
scalar FogSequentialForward.fog[26].dispatcher externalJobs 5479
scalar FogSequentialForward.fog[26].dispatcher remoteJobs 5338
scalar FogSequentialForward.fog[26].dispatcher probeQueries 0
scalar FogSequentialForward.fog[26].dispatcher probeAnswers 0
scalar FogSequentialForward.fog[26].dispatcher droppedJobsSLA 0
scalar FogSequentialForward.fog[26].dispatcher jobs_class_1 14344
scalar FogSequentialForward.fog[26].dispatcher remoteJobs_class_1 5338
scalar FogSequentialForward.fog[26].dispatcher localJobs_class_1 9006
scalar FogSequentialForward.fog[26].server[0] rho 0.99971204996109
scalar FogSequentialForward.fog[26].server[0] congestionRatio 0
scalar FogSequentialForward.fog[26].server[0] totalJobs 9006
scalar FogSequentialForward.fog[26].server[0] droppedJobsQueue 1
scalar FogSequentialForward.fog[26].server[0] droppedJobsTimout 0
scalar FogSequentialForward.fog[26].server[0] droppedJobsSLA 5180
scalar FogSequentialForward.fog[26].server[0] droppedJobsTotal 5181
scalar FogSequentialForward.fog[27].dispatcher localJobs 9000
scalar FogSequentialForward.fog[27].dispatcher internalJobs 9038
scalar FogSequentialForward.fog[27].dispatcher externalJobs 5293
scalar FogSequentialForward.fog[27].dispatcher remoteJobs 5331
scalar FogSequentialForward.fog[27].dispatcher probeQueries 0
scalar FogSequentialForward.fog[27].dispatcher probeAnswers 0
scalar FogSequentialForward.fog[27].dispatcher droppedJobsSLA 0
scalar FogSequentialForward.fog[27].dispatcher jobs_class_1 14331
scalar FogSequentialForward.fog[27].dispatcher remoteJobs_class_1 5331
scalar FogSequentialForward.fog[27].dispatcher localJobs_class_1 9000
scalar FogSequentialForward.fog[27].server[0] rho 0.99979990720749
scalar FogSequentialForward.fog[27].server[0] congestionRatio 0
scalar FogSequentialForward.fog[27].server[0] totalJobs 9000
scalar FogSequentialForward.fog[27].server[0] droppedJobsQueue 1
scalar FogSequentialForward.fog[27].server[0] droppedJobsTimout 0
scalar FogSequentialForward.fog[27].server[0] droppedJobsSLA 5098
scalar FogSequentialForward.fog[27].server[0] droppedJobsTotal 5099
scalar FogSequentialForward.fog[28].dispatcher localJobs 8974
scalar FogSequentialForward.fog[28].dispatcher internalJobs 8924
scalar FogSequentialForward.fog[28].dispatcher externalJobs 5352
scalar FogSequentialForward.fog[28].dispatcher remoteJobs 5302
scalar FogSequentialForward.fog[28].dispatcher probeQueries 0
scalar FogSequentialForward.fog[28].dispatcher probeAnswers 0
scalar FogSequentialForward.fog[28].dispatcher droppedJobsSLA 0
scalar FogSequentialForward.fog[28].dispatcher jobs_class_1 14276
scalar FogSequentialForward.fog[28].dispatcher remoteJobs_class_1 5302
scalar FogSequentialForward.fog[28].dispatcher localJobs_class_1 8974
scalar FogSequentialForward.fog[28].server[0] rho 1
scalar FogSequentialForward.fog[28].server[0] congestionRatio 0
scalar FogSequentialForward.fog[28].server[0] totalJobs 8974
scalar FogSequentialForward.fog[28].server[0] droppedJobsQueue 0
scalar FogSequentialForward.fog[28].server[0] droppedJobsTimout 0
scalar FogSequentialForward.fog[28].server[0] droppedJobsSLA 5112
scalar FogSequentialForward.fog[28].server[0] droppedJobsTotal 5112
scalar FogSequentialForward.fog[29].dispatcher localJobs 8979
scalar FogSequentialForward.fog[29].dispatcher internalJobs 8916
scalar FogSequentialForward.fog[29].dispatcher externalJobs 5403
scalar FogSequentialForward.fog[29].dispatcher remoteJobs 5340
scalar FogSequentialForward.fog[29].dispatcher probeQueries 0
scalar FogSequentialForward.fog[29].dispatcher probeAnswers 0
scalar FogSequentialForward.fog[29].dispatcher droppedJobsSLA 0
scalar FogSequentialForward.fog[29].dispatcher jobs_class_1 14319
scalar FogSequentialForward.fog[29].dispatcher remoteJobs_class_1 5340
scalar FogSequentialForward.fog[29].dispatcher localJobs_class_1 8979
scalar FogSequentialForward.fog[29].server[0] rho 1
scalar FogSequentialForward.fog[29].server[0] congestionRatio 0
scalar FogSequentialForward.fog[29].server[0] totalJobs 8979
scalar FogSequentialForward.fog[29].server[0] droppedJobsQueue 3
scalar FogSequentialForward.fog[29].server[0] droppedJobsTimout 0
scalar FogSequentialForward.fog[29].server[0] droppedJobsSLA 5250
scalar FogSequentialForward.fog[29].server[0] droppedJobsTotal 5253
scalar FogSequentialForward.fog[30].dispatcher localJobs 9025
scalar FogSequentialForward.fog[30].dispatcher internalJobs 9043
scalar FogSequentialForward.fog[30].dispatcher externalJobs 5407
scalar FogSequentialForward.fog[30].dispatcher remoteJobs 5425
scalar FogSequentialForward.fog[30].dispatcher probeQueries 0
scalar FogSequentialForward.fog[30].dispatcher probeAnswers 0
scalar FogSequentialForward.fog[30].dispatcher droppedJobsSLA 0
scalar FogSequentialForward.fog[30].dispatcher jobs_class_1 14450
scalar FogSequentialForward.fog[30].dispatcher remoteJobs_class_1 5425
scalar FogSequentialForward.fog[30].dispatcher localJobs_class_1 9025
scalar FogSequentialForward.fog[30].server[0] rho 1
scalar FogSequentialForward.fog[30].server[0] congestionRatio 0
scalar FogSequentialForward.fog[30].server[0] totalJobs 9025
scalar FogSequentialForward.fog[30].server[0] droppedJobsQueue 2
scalar FogSequentialForward.fog[30].server[0] droppedJobsTimout 0
scalar FogSequentialForward.fog[30].server[0] droppedJobsSLA 5171
scalar FogSequentialForward.fog[30].server[0] droppedJobsTotal 5173
scalar FogSequentialForward.fog[31].dispatcher localJobs 8998
scalar FogSequentialForward.fog[31].dispatcher internalJobs 8964
scalar FogSequentialForward.fog[31].dispatcher externalJobs 5364
scalar FogSequentialForward.fog[31].dispatcher remoteJobs 5330
scalar FogSequentialForward.fog[31].dispatcher probeQueries 0
scalar FogSequentialForward.fog[31].dispatcher probeAnswers 0
scalar FogSequentialForward.fog[31].dispatcher droppedJobsSLA 0
scalar FogSequentialForward.fog[31].dispatcher jobs_class_1 14328
scalar FogSequentialForward.fog[31].dispatcher remoteJobs_class_1 5330
scalar FogSequentialForward.fog[31].dispatcher localJobs_class_1 8998
scalar FogSequentialForward.fog[31].server[0] rho 0.99999159574509
scalar FogSequentialForward.fog[31].server[0] congestionRatio 0
scalar FogSequentialForward.fog[31].server[0] totalJobs 8998
scalar FogSequentialForward.fog[31].server[0] droppedJobsQueue 3
scalar FogSequentialForward.fog[31].server[0] droppedJobsTimout 0
scalar FogSequentialForward.fog[31].server[0] droppedJobsSLA 5186
scalar FogSequentialForward.fog[31].server[0] droppedJobsTotal 5189
scalar FogSequentialForward.fog[32].dispatcher localJobs 9021
scalar FogSequentialForward.fog[32].dispatcher internalJobs 8999
scalar FogSequentialForward.fog[32].dispatcher externalJobs 5411
scalar FogSequentialForward.fog[32].dispatcher remoteJobs 5389
scalar FogSequentialForward.fog[32].dispatcher probeQueries 0
scalar FogSequentialForward.fog[32].dispatcher probeAnswers 0
scalar FogSequentialForward.fog[32].dispatcher droppedJobsSLA 0
scalar FogSequentialForward.fog[32].dispatcher jobs_class_1 14410
scalar FogSequentialForward.fog[32].dispatcher remoteJobs_class_1 5389
scalar FogSequentialForward.fog[32].dispatcher localJobs_class_1 9021
scalar FogSequentialForward.fog[32].server[0] rho 1
scalar FogSequentialForward.fog[32].server[0] congestionRatio 0
scalar FogSequentialForward.fog[32].server[0] totalJobs 9021
scalar FogSequentialForward.fog[32].server[0] droppedJobsQueue 1
scalar FogSequentialForward.fog[32].server[0] droppedJobsTimout 0
scalar FogSequentialForward.fog[32].server[0] droppedJobsSLA 5168
scalar FogSequentialForward.fog[32].server[0] droppedJobsTotal 5169
scalar FogSequentialForward.fog[33].dispatcher localJobs 9008
scalar FogSequentialForward.fog[33].dispatcher internalJobs 8925
scalar FogSequentialForward.fog[33].dispatcher externalJobs 5411
scalar FogSequentialForward.fog[33].dispatcher remoteJobs 5328
scalar FogSequentialForward.fog[33].dispatcher probeQueries 0
scalar FogSequentialForward.fog[33].dispatcher probeAnswers 0
scalar FogSequentialForward.fog[33].dispatcher droppedJobsSLA 0
scalar FogSequentialForward.fog[33].dispatcher jobs_class_1 14336
scalar FogSequentialForward.fog[33].dispatcher remoteJobs_class_1 5328
scalar FogSequentialForward.fog[33].dispatcher localJobs_class_1 9008
scalar FogSequentialForward.fog[33].server[0] rho 0.99953997135162
scalar FogSequentialForward.fog[33].server[0] congestionRatio 0
scalar FogSequentialForward.fog[33].server[0] totalJobs 9008
scalar FogSequentialForward.fog[33].server[0] droppedJobsQueue 0
scalar FogSequentialForward.fog[33].server[0] droppedJobsTimout 0
scalar FogSequentialForward.fog[33].server[0] droppedJobsSLA 5105
scalar FogSequentialForward.fog[33].server[0] droppedJobsTotal 5105
scalar FogSequentialForward.fog[34].dispatcher localJobs 8984
scalar FogSequentialForward.fog[34].dispatcher internalJobs 9198
scalar FogSequentialForward.fog[34].dispatcher externalJobs 5352
scalar FogSequentialForward.fog[34].dispatcher remoteJobs 5566
scalar FogSequentialForward.fog[34].dispatcher probeQueries 0
scalar FogSequentialForward.fog[34].dispatcher probeAnswers 0
scalar FogSequentialForward.fog[34].dispatcher droppedJobsSLA 0
scalar FogSequentialForward.fog[34].dispatcher jobs_class_1 14550
scalar FogSequentialForward.fog[34].dispatcher remoteJobs_class_1 5566
scalar FogSequentialForward.fog[34].dispatcher localJobs_class_1 8984
scalar FogSequentialForward.fog[34].server[0] rho 0.9996582865715
scalar FogSequentialForward.fog[34].server[0] congestionRatio 0
scalar FogSequentialForward.fog[34].server[0] totalJobs 8984
scalar FogSequentialForward.fog[34].server[0] droppedJobsQueue 0
scalar FogSequentialForward.fog[34].server[0] droppedJobsTimout 0
scalar FogSequentialForward.fog[34].server[0] droppedJobsSLA 5105
scalar FogSequentialForward.fog[34].server[0] droppedJobsTotal 5105
scalar FogSequentialForward.fog[35].dispatcher localJobs 9011
scalar FogSequentialForward.fog[35].dispatcher internalJobs 8946
scalar FogSequentialForward.fog[35].dispatcher externalJobs 5452
scalar FogSequentialForward.fog[35].dispatcher remoteJobs 5387
scalar FogSequentialForward.fog[35].dispatcher probeQueries 0
scalar FogSequentialForward.fog[35].dispatcher probeAnswers 0
scalar FogSequentialForward.fog[35].dispatcher droppedJobsSLA 0
scalar FogSequentialForward.fog[35].dispatcher jobs_class_1 14398
scalar FogSequentialForward.fog[35].dispatcher remoteJobs_class_1 5387
scalar FogSequentialForward.fog[35].dispatcher localJobs_class_1 9011
scalar FogSequentialForward.fog[35].server[0] rho 0.99982130527496
scalar FogSequentialForward.fog[35].server[0] congestionRatio 0
scalar FogSequentialForward.fog[35].server[0] totalJobs 9011
scalar FogSequentialForward.fog[35].server[0] droppedJobsQueue 0
scalar FogSequentialForward.fog[35].server[0] droppedJobsTimout 0
scalar FogSequentialForward.fog[35].server[0] droppedJobsSLA 5220
scalar FogSequentialForward.fog[35].server[0] droppedJobsTotal 5220
scalar FogSequentialForward.fog[36].dispatcher localJobs 9014
scalar FogSequentialForward.fog[36].dispatcher internalJobs 9010
scalar FogSequentialForward.fog[36].dispatcher externalJobs 5410
scalar FogSequentialForward.fog[36].dispatcher remoteJobs 5406
scalar FogSequentialForward.fog[36].dispatcher probeQueries 0
scalar FogSequentialForward.fog[36].dispatcher probeAnswers 0
scalar FogSequentialForward.fog[36].dispatcher droppedJobsSLA 0
scalar FogSequentialForward.fog[36].dispatcher jobs_class_1 14420
scalar FogSequentialForward.fog[36].dispatcher remoteJobs_class_1 5406
scalar FogSequentialForward.fog[36].dispatcher localJobs_class_1 9014
scalar FogSequentialForward.fog[36].server[0] rho 0.99996453523636
scalar FogSequentialForward.fog[36].server[0] congestionRatio 0
scalar FogSequentialForward.fog[36].server[0] totalJobs 9014
scalar FogSequentialForward.fog[36].server[0] droppedJobsQueue 2
scalar FogSequentialForward.fog[36].server[0] droppedJobsTimout 0
scalar FogSequentialForward.fog[36].server[0] droppedJobsSLA 5177
scalar FogSequentialForward.fog[36].server[0] droppedJobsTotal 5179
scalar FogSequentialForward.fog[37].dispatcher localJobs 9059
scalar FogSequentialForward.fog[37].dispatcher internalJobs 9196
scalar FogSequentialForward.fog[37].dispatcher externalJobs 5413
scalar FogSequentialForward.fog[37].dispatcher remoteJobs 5550
scalar FogSequentialForward.fog[37].dispatcher probeQueries 0
scalar FogSequentialForward.fog[37].dispatcher probeAnswers 0
scalar FogSequentialForward.fog[37].dispatcher droppedJobsSLA 0
scalar FogSequentialForward.fog[37].dispatcher jobs_class_1 14609
scalar FogSequentialForward.fog[37].dispatcher remoteJobs_class_1 5550
scalar FogSequentialForward.fog[37].dispatcher localJobs_class_1 9059
scalar FogSequentialForward.fog[37].server[0] rho 0.9999765753746
scalar FogSequentialForward.fog[37].server[0] congestionRatio 0
scalar FogSequentialForward.fog[37].server[0] totalJobs 9059
scalar FogSequentialForward.fog[37].server[0] droppedJobsQueue 2
scalar FogSequentialForward.fog[37].server[0] droppedJobsTimout 0
scalar FogSequentialForward.fog[37].server[0] droppedJobsSLA 5251
scalar FogSequentialForward.fog[37].server[0] droppedJobsTotal 5253
scalar FogSequentialForward.fog[38].dispatcher localJobs 9027
scalar FogSequentialForward.fog[38].dispatcher internalJobs 9018
scalar FogSequentialForward.fog[38].dispatcher externalJobs 5356
scalar FogSequentialForward.fog[38].dispatcher remoteJobs 5347
scalar FogSequentialForward.fog[38].dispatcher probeQueries 0
scalar FogSequentialForward.fog[38].dispatcher probeAnswers 0
scalar FogSequentialForward.fog[38].dispatcher droppedJobsSLA 0
scalar FogSequentialForward.fog[38].dispatcher jobs_class_1 14374
scalar FogSequentialForward.fog[38].dispatcher remoteJobs_class_1 5347
scalar FogSequentialForward.fog[38].dispatcher localJobs_class_1 9027
scalar FogSequentialForward.fog[38].server[0] rho 1
scalar FogSequentialForward.fog[38].server[0] congestionRatio 0
scalar FogSequentialForward.fog[38].server[0] totalJobs 9027
scalar FogSequentialForward.fog[38].server[0] droppedJobsQueue 4
scalar FogSequentialForward.fog[38].server[0] droppedJobsTimout 0
scalar FogSequentialForward.fog[38].server[0] droppedJobsSLA 5102
scalar FogSequentialForward.fog[38].server[0] droppedJobsTotal 5106
scalar FogSequentialForward.fog[39].dispatcher localJobs 9029
scalar FogSequentialForward.fog[39].dispatcher internalJobs 8992
scalar FogSequentialForward.fog[39].dispatcher externalJobs 5382
scalar FogSequentialForward.fog[39].dispatcher remoteJobs 5345
scalar FogSequentialForward.fog[39].dispatcher probeQueries 0
scalar FogSequentialForward.fog[39].dispatcher probeAnswers 0
scalar FogSequentialForward.fog[39].dispatcher droppedJobsSLA 0
scalar FogSequentialForward.fog[39].dispatcher jobs_class_1 14374
scalar FogSequentialForward.fog[39].dispatcher remoteJobs_class_1 5345
scalar FogSequentialForward.fog[39].dispatcher localJobs_class_1 9029
scalar FogSequentialForward.fog[39].server[0] rho 1
scalar FogSequentialForward.fog[39].server[0] congestionRatio 0
scalar FogSequentialForward.fog[39].server[0] totalJobs 9029
scalar FogSequentialForward.fog[39].server[0] droppedJobsQueue 1
scalar FogSequentialForward.fog[39].server[0] droppedJobsTimout 0
scalar FogSequentialForward.fog[39].server[0] droppedJobsSLA 5180
scalar FogSequentialForward.fog[39].server[0] droppedJobsTotal 5181
scalar FogSequentialForward.fog[40].dispatcher localJobs 8995
scalar FogSequentialForward.fog[40].dispatcher internalJobs 8894
scalar FogSequentialForward.fog[40].dispatcher externalJobs 5361
scalar FogSequentialForward.fog[40].dispatcher remoteJobs 5260
scalar FogSequentialForward.fog[40].dispatcher probeQueries 0
scalar FogSequentialForward.fog[40].dispatcher probeAnswers 0
scalar FogSequentialForward.fog[40].dispatcher droppedJobsSLA 0
scalar FogSequentialForward.fog[40].dispatcher jobs_class_1 14255
scalar FogSequentialForward.fog[40].dispatcher remoteJobs_class_1 5260
scalar FogSequentialForward.fog[40].dispatcher localJobs_class_1 8995
scalar FogSequentialForward.fog[40].server[0] rho 1
scalar FogSequentialForward.fog[40].server[0] congestionRatio 0
scalar FogSequentialForward.fog[40].server[0] totalJobs 8995
scalar FogSequentialForward.fog[40].server[0] droppedJobsQueue 1
scalar FogSequentialForward.fog[40].server[0] droppedJobsTimout 0
scalar FogSequentialForward.fog[40].server[0] droppedJobsSLA 5160
scalar FogSequentialForward.fog[40].server[0] droppedJobsTotal 5161
scalar FogSequentialForward.fog[41].dispatcher localJobs 9018
scalar FogSequentialForward.fog[41].dispatcher internalJobs 8986
scalar FogSequentialForward.fog[41].dispatcher externalJobs 5500
scalar FogSequentialForward.fog[41].dispatcher remoteJobs 5468
scalar FogSequentialForward.fog[41].dispatcher probeQueries 0
scalar FogSequentialForward.fog[41].dispatcher probeAnswers 0
scalar FogSequentialForward.fog[41].dispatcher droppedJobsSLA 0
scalar FogSequentialForward.fog[41].dispatcher jobs_class_1 14486
scalar FogSequentialForward.fog[41].dispatcher remoteJobs_class_1 5468
scalar FogSequentialForward.fog[41].dispatcher localJobs_class_1 9018
scalar FogSequentialForward.fog[41].server[0] rho 1
scalar FogSequentialForward.fog[41].server[0] congestionRatio 0
scalar FogSequentialForward.fog[41].server[0] totalJobs 9018
scalar FogSequentialForward.fog[41].server[0] droppedJobsQueue 2
scalar FogSequentialForward.fog[41].server[0] droppedJobsTimout 0
scalar FogSequentialForward.fog[41].server[0] droppedJobsSLA 5166
scalar FogSequentialForward.fog[41].server[0] droppedJobsTotal 5168
scalar FogSequentialForward.fog[42].dispatcher localJobs 9031
scalar FogSequentialForward.fog[42].dispatcher internalJobs 9064
scalar FogSequentialForward.fog[42].dispatcher externalJobs 5378
scalar FogSequentialForward.fog[42].dispatcher remoteJobs 5411
scalar FogSequentialForward.fog[42].dispatcher probeQueries 0
scalar FogSequentialForward.fog[42].dispatcher probeAnswers 0
scalar FogSequentialForward.fog[42].dispatcher droppedJobsSLA 0
scalar FogSequentialForward.fog[42].dispatcher jobs_class_1 14442
scalar FogSequentialForward.fog[42].dispatcher remoteJobs_class_1 5411
scalar FogSequentialForward.fog[42].dispatcher localJobs_class_1 9031
scalar FogSequentialForward.fog[42].server[0] rho 0.9995276927948
scalar FogSequentialForward.fog[42].server[0] congestionRatio 0
scalar FogSequentialForward.fog[42].server[0] totalJobs 9031
scalar FogSequentialForward.fog[42].server[0] droppedJobsQueue 0
scalar FogSequentialForward.fog[42].server[0] droppedJobsTimout 0
scalar FogSequentialForward.fog[42].server[0] droppedJobsSLA 5160
scalar FogSequentialForward.fog[42].server[0] droppedJobsTotal 5160
scalar FogSequentialForward.fog[43].dispatcher localJobs 8988
scalar FogSequentialForward.fog[43].dispatcher internalJobs 8924
scalar FogSequentialForward.fog[43].dispatcher externalJobs 5518
scalar FogSequentialForward.fog[43].dispatcher remoteJobs 5454
scalar FogSequentialForward.fog[43].dispatcher probeQueries 0
scalar FogSequentialForward.fog[43].dispatcher probeAnswers 0
scalar FogSequentialForward.fog[43].dispatcher droppedJobsSLA 0
scalar FogSequentialForward.fog[43].dispatcher jobs_class_1 14442
scalar FogSequentialForward.fog[43].dispatcher remoteJobs_class_1 5454
scalar FogSequentialForward.fog[43].dispatcher localJobs_class_1 8988
scalar FogSequentialForward.fog[43].server[0] rho 1
scalar FogSequentialForward.fog[43].server[0] congestionRatio 0
scalar FogSequentialForward.fog[43].server[0] totalJobs 8988
scalar FogSequentialForward.fog[43].server[0] droppedJobsQueue 2
scalar FogSequentialForward.fog[43].server[0] droppedJobsTimout 0
scalar FogSequentialForward.fog[43].server[0] droppedJobsSLA 5264
scalar FogSequentialForward.fog[43].server[0] droppedJobsTotal 5266
scalar FogSequentialForward.fog[44].dispatcher localJobs 9031
scalar FogSequentialForward.fog[44].dispatcher internalJobs 9176
scalar FogSequentialForward.fog[44].dispatcher externalJobs 5478
scalar FogSequentialForward.fog[44].dispatcher remoteJobs 5623
scalar FogSequentialForward.fog[44].dispatcher probeQueries 0
scalar FogSequentialForward.fog[44].dispatcher probeAnswers 0
scalar FogSequentialForward.fog[44].dispatcher droppedJobsSLA 0
scalar FogSequentialForward.fog[44].dispatcher jobs_class_1 14654
scalar FogSequentialForward.fog[44].dispatcher remoteJobs_class_1 5623
scalar FogSequentialForward.fog[44].dispatcher localJobs_class_1 9031
scalar FogSequentialForward.fog[44].server[0] rho 1
scalar FogSequentialForward.fog[44].server[0] congestionRatio 0
scalar FogSequentialForward.fog[44].server[0] totalJobs 9031
scalar FogSequentialForward.fog[44].server[0] droppedJobsQueue 1
scalar FogSequentialForward.fog[44].server[0] droppedJobsTimout 0
scalar FogSequentialForward.fog[44].server[0] droppedJobsSLA 5200
scalar FogSequentialForward.fog[44].server[0] droppedJobsTotal 5201
scalar FogSequentialForward.fog[45].dispatcher localJobs 8979
scalar FogSequentialForward.fog[45].dispatcher internalJobs 8849
scalar FogSequentialForward.fog[45].dispatcher externalJobs 5383
scalar FogSequentialForward.fog[45].dispatcher remoteJobs 5253
scalar FogSequentialForward.fog[45].dispatcher probeQueries 0
scalar FogSequentialForward.fog[45].dispatcher probeAnswers 0
scalar FogSequentialForward.fog[45].dispatcher droppedJobsSLA 0
scalar FogSequentialForward.fog[45].dispatcher jobs_class_1 14232
scalar FogSequentialForward.fog[45].dispatcher remoteJobs_class_1 5253
scalar FogSequentialForward.fog[45].dispatcher localJobs_class_1 8979
scalar FogSequentialForward.fog[45].server[0] rho 1
scalar FogSequentialForward.fog[45].server[0] congestionRatio 0
scalar FogSequentialForward.fog[45].server[0] totalJobs 8979
scalar FogSequentialForward.fog[45].server[0] droppedJobsQueue 3
scalar FogSequentialForward.fog[45].server[0] droppedJobsTimout 0
scalar FogSequentialForward.fog[45].server[0] droppedJobsSLA 5124
scalar FogSequentialForward.fog[45].server[0] droppedJobsTotal 5127
scalar FogSequentialForward.fog[46].dispatcher localJobs 9030
scalar FogSequentialForward.fog[46].dispatcher internalJobs 9075
scalar FogSequentialForward.fog[46].dispatcher externalJobs 5429
scalar FogSequentialForward.fog[46].dispatcher remoteJobs 5474
scalar FogSequentialForward.fog[46].dispatcher probeQueries 0
scalar FogSequentialForward.fog[46].dispatcher probeAnswers 0
scalar FogSequentialForward.fog[46].dispatcher droppedJobsSLA 0
scalar FogSequentialForward.fog[46].dispatcher jobs_class_1 14504
scalar FogSequentialForward.fog[46].dispatcher remoteJobs_class_1 5474
scalar FogSequentialForward.fog[46].dispatcher localJobs_class_1 9030
scalar FogSequentialForward.fog[46].server[0] rho 0.99969869852066
scalar FogSequentialForward.fog[46].server[0] congestionRatio 0
scalar FogSequentialForward.fog[46].server[0] totalJobs 9030
scalar FogSequentialForward.fog[46].server[0] droppedJobsQueue 1
scalar FogSequentialForward.fog[46].server[0] droppedJobsTimout 0
scalar FogSequentialForward.fog[46].server[0] droppedJobsSLA 5116
scalar FogSequentialForward.fog[46].server[0] droppedJobsTotal 5117
scalar FogSequentialForward.fog[47].dispatcher localJobs 9031
scalar FogSequentialForward.fog[47].dispatcher internalJobs 9060
scalar FogSequentialForward.fog[47].dispatcher externalJobs 5445
scalar FogSequentialForward.fog[47].dispatcher remoteJobs 5474
scalar FogSequentialForward.fog[47].dispatcher probeQueries 0
scalar FogSequentialForward.fog[47].dispatcher probeAnswers 0
scalar FogSequentialForward.fog[47].dispatcher droppedJobsSLA 0
scalar FogSequentialForward.fog[47].dispatcher jobs_class_1 14505
scalar FogSequentialForward.fog[47].dispatcher remoteJobs_class_1 5474
scalar FogSequentialForward.fog[47].dispatcher localJobs_class_1 9031
scalar FogSequentialForward.fog[47].server[0] rho 1
scalar FogSequentialForward.fog[47].server[0] congestionRatio 0
scalar FogSequentialForward.fog[47].server[0] totalJobs 9031
scalar FogSequentialForward.fog[47].server[0] droppedJobsQueue 1
scalar FogSequentialForward.fog[47].server[0] droppedJobsTimout 0
scalar FogSequentialForward.fog[47].server[0] droppedJobsSLA 5223
scalar FogSequentialForward.fog[47].server[0] droppedJobsTotal 5224
scalar FogSequentialForward.fog[48].dispatcher localJobs 9054
scalar FogSequentialForward.fog[48].dispatcher internalJobs 9140
scalar FogSequentialForward.fog[48].dispatcher externalJobs 5411
scalar FogSequentialForward.fog[48].dispatcher remoteJobs 5497
scalar FogSequentialForward.fog[48].dispatcher probeQueries 0
scalar FogSequentialForward.fog[48].dispatcher probeAnswers 0
scalar FogSequentialForward.fog[48].dispatcher droppedJobsSLA 0
scalar FogSequentialForward.fog[48].dispatcher jobs_class_1 14551
scalar FogSequentialForward.fog[48].dispatcher remoteJobs_class_1 5497
scalar FogSequentialForward.fog[48].dispatcher localJobs_class_1 9054
scalar FogSequentialForward.fog[48].server[0] rho 0.99973058700562
scalar FogSequentialForward.fog[48].server[0] congestionRatio 0
scalar FogSequentialForward.fog[48].server[0] totalJobs 9054
scalar FogSequentialForward.fog[48].server[0] droppedJobsQueue 3
scalar FogSequentialForward.fog[48].server[0] droppedJobsTimout 0
scalar FogSequentialForward.fog[48].server[0] droppedJobsSLA 5175
scalar FogSequentialForward.fog[48].server[0] droppedJobsTotal 5178
scalar FogSequentialForward.fog[49].dispatcher localJobs 9009
scalar FogSequentialForward.fog[49].dispatcher internalJobs 8914
scalar FogSequentialForward.fog[49].dispatcher externalJobs 5467
scalar FogSequentialForward.fog[49].dispatcher remoteJobs 5372
scalar FogSequentialForward.fog[49].dispatcher probeQueries 0
scalar FogSequentialForward.fog[49].dispatcher probeAnswers 0
scalar FogSequentialForward.fog[49].dispatcher droppedJobsSLA 0
scalar FogSequentialForward.fog[49].dispatcher jobs_class_1 14381
scalar FogSequentialForward.fog[49].dispatcher remoteJobs_class_1 5372
scalar FogSequentialForward.fog[49].dispatcher localJobs_class_1 9009
scalar FogSequentialForward.fog[49].server[0] rho 0.99957609176636
scalar FogSequentialForward.fog[49].server[0] congestionRatio 0
scalar FogSequentialForward.fog[49].server[0] totalJobs 9009
scalar FogSequentialForward.fog[49].server[0] droppedJobsQueue 1
scalar FogSequentialForward.fog[49].server[0] droppedJobsTimout 0
scalar FogSequentialForward.fog[49].server[0] droppedJobsSLA 5145
scalar FogSequentialForward.fog[49].server[0] droppedJobsTotal 5146
scalar FogSequentialForward.fog[50].dispatcher localJobs 9014
scalar FogSequentialForward.fog[50].dispatcher internalJobs 9125
scalar FogSequentialForward.fog[50].dispatcher externalJobs 5372
scalar FogSequentialForward.fog[50].dispatcher remoteJobs 5483
scalar FogSequentialForward.fog[50].dispatcher probeQueries 0
scalar FogSequentialForward.fog[50].dispatcher probeAnswers 0
scalar FogSequentialForward.fog[50].dispatcher droppedJobsSLA 0
scalar FogSequentialForward.fog[50].dispatcher jobs_class_1 14497
scalar FogSequentialForward.fog[50].dispatcher remoteJobs_class_1 5483
scalar FogSequentialForward.fog[50].dispatcher localJobs_class_1 9014
scalar FogSequentialForward.fog[50].server[0] rho 0.9999515414238
scalar FogSequentialForward.fog[50].server[0] congestionRatio 0
scalar FogSequentialForward.fog[50].server[0] totalJobs 9014
scalar FogSequentialForward.fog[50].server[0] droppedJobsQueue 1
scalar FogSequentialForward.fog[50].server[0] droppedJobsTimout 0
scalar FogSequentialForward.fog[50].server[0] droppedJobsSLA 5224
scalar FogSequentialForward.fog[50].server[0] droppedJobsTotal 5225
scalar FogSequentialForward.fog[51].dispatcher localJobs 9005
scalar FogSequentialForward.fog[51].dispatcher internalJobs 9055
scalar FogSequentialForward.fog[51].dispatcher externalJobs 5446
scalar FogSequentialForward.fog[51].dispatcher remoteJobs 5496
scalar FogSequentialForward.fog[51].dispatcher probeQueries 0
scalar FogSequentialForward.fog[51].dispatcher probeAnswers 0
scalar FogSequentialForward.fog[51].dispatcher droppedJobsSLA 0
scalar FogSequentialForward.fog[51].dispatcher jobs_class_1 14501
scalar FogSequentialForward.fog[51].dispatcher remoteJobs_class_1 5496
scalar FogSequentialForward.fog[51].dispatcher localJobs_class_1 9005
scalar FogSequentialForward.fog[51].server[0] rho 1
scalar FogSequentialForward.fog[51].server[0] congestionRatio 0
scalar FogSequentialForward.fog[51].server[0] totalJobs 9005
scalar FogSequentialForward.fog[51].server[0] droppedJobsQueue 1
scalar FogSequentialForward.fog[51].server[0] droppedJobsTimout 0
scalar FogSequentialForward.fog[51].server[0] droppedJobsSLA 5157
scalar FogSequentialForward.fog[51].server[0] droppedJobsTotal 5158
scalar FogSequentialForward.fog[52].dispatcher localJobs 9020
scalar FogSequentialForward.fog[52].dispatcher internalJobs 9133
scalar FogSequentialForward.fog[52].dispatcher externalJobs 5313
scalar FogSequentialForward.fog[52].dispatcher remoteJobs 5426
scalar FogSequentialForward.fog[52].dispatcher probeQueries 0
scalar FogSequentialForward.fog[52].dispatcher probeAnswers 0
scalar FogSequentialForward.fog[52].dispatcher droppedJobsSLA 0
scalar FogSequentialForward.fog[52].dispatcher jobs_class_1 14446
scalar FogSequentialForward.fog[52].dispatcher remoteJobs_class_1 5426
scalar FogSequentialForward.fog[52].dispatcher localJobs_class_1 9020
scalar FogSequentialForward.fog[52].server[0] rho 1
scalar FogSequentialForward.fog[52].server[0] congestionRatio 0
scalar FogSequentialForward.fog[52].server[0] totalJobs 9020
scalar FogSequentialForward.fog[52].server[0] droppedJobsQueue 0
scalar FogSequentialForward.fog[52].server[0] droppedJobsTimout 0
scalar FogSequentialForward.fog[52].server[0] droppedJobsSLA 5243
scalar FogSequentialForward.fog[52].server[0] droppedJobsTotal 5243
scalar FogSequentialForward.fog[53].dispatcher localJobs 8990
scalar FogSequentialForward.fog[53].dispatcher internalJobs 8911
scalar FogSequentialForward.fog[53].dispatcher externalJobs 5467
scalar FogSequentialForward.fog[53].dispatcher remoteJobs 5388
scalar FogSequentialForward.fog[53].dispatcher probeQueries 0
scalar FogSequentialForward.fog[53].dispatcher probeAnswers 0
scalar FogSequentialForward.fog[53].dispatcher droppedJobsSLA 0
scalar FogSequentialForward.fog[53].dispatcher jobs_class_1 14378
scalar FogSequentialForward.fog[53].dispatcher remoteJobs_class_1 5388
scalar FogSequentialForward.fog[53].dispatcher localJobs_class_1 8990
scalar FogSequentialForward.fog[53].server[0] rho 0.99991697072983
scalar FogSequentialForward.fog[53].server[0] congestionRatio 0
scalar FogSequentialForward.fog[53].server[0] totalJobs 8990
scalar FogSequentialForward.fog[53].server[0] droppedJobsQueue 3
scalar FogSequentialForward.fog[53].server[0] droppedJobsTimout 0
scalar FogSequentialForward.fog[53].server[0] droppedJobsSLA 5126
scalar FogSequentialForward.fog[53].server[0] droppedJobsTotal 5129
scalar FogSequentialForward.fog[54].dispatcher localJobs 9031
scalar FogSequentialForward.fog[54].dispatcher internalJobs 8998
scalar FogSequentialForward.fog[54].dispatcher externalJobs 5499
scalar FogSequentialForward.fog[54].dispatcher remoteJobs 5466
scalar FogSequentialForward.fog[54].dispatcher probeQueries 0
scalar FogSequentialForward.fog[54].dispatcher probeAnswers 0
scalar FogSequentialForward.fog[54].dispatcher droppedJobsSLA 0
scalar FogSequentialForward.fog[54].dispatcher jobs_class_1 14497
scalar FogSequentialForward.fog[54].dispatcher remoteJobs_class_1 5466
scalar FogSequentialForward.fog[54].dispatcher localJobs_class_1 9031
scalar FogSequentialForward.fog[54].server[0] rho 0.99990338087082
scalar FogSequentialForward.fog[54].server[0] congestionRatio 0
scalar FogSequentialForward.fog[54].server[0] totalJobs 9031
scalar FogSequentialForward.fog[54].server[0] droppedJobsQueue 2
scalar FogSequentialForward.fog[54].server[0] droppedJobsTimout 0
scalar FogSequentialForward.fog[54].server[0] droppedJobsSLA 5142
scalar FogSequentialForward.fog[54].server[0] droppedJobsTotal 5144
scalar FogSequentialForward.fog[55].dispatcher localJobs 9028
scalar FogSequentialForward.fog[55].dispatcher internalJobs 9006
scalar FogSequentialForward.fog[55].dispatcher externalJobs 5471
scalar FogSequentialForward.fog[55].dispatcher remoteJobs 5449
scalar FogSequentialForward.fog[55].dispatcher probeQueries 0
scalar FogSequentialForward.fog[55].dispatcher probeAnswers 0
scalar FogSequentialForward.fog[55].dispatcher droppedJobsSLA 0
scalar FogSequentialForward.fog[55].dispatcher jobs_class_1 14477
scalar FogSequentialForward.fog[55].dispatcher remoteJobs_class_1 5449
scalar FogSequentialForward.fog[55].dispatcher localJobs_class_1 9028
scalar FogSequentialForward.fog[55].server[0] rho 0.99985826015472
scalar FogSequentialForward.fog[55].server[0] congestionRatio 0
scalar FogSequentialForward.fog[55].server[0] totalJobs 9028
scalar FogSequentialForward.fog[55].server[0] droppedJobsQueue 1
scalar FogSequentialForward.fog[55].server[0] droppedJobsTimout 0
scalar FogSequentialForward.fog[55].server[0] droppedJobsSLA 5148
scalar FogSequentialForward.fog[55].server[0] droppedJobsTotal 5149
scalar FogSequentialForward.fog[56].dispatcher localJobs 8982
scalar FogSequentialForward.fog[56].dispatcher internalJobs 8930
scalar FogSequentialForward.fog[56].dispatcher externalJobs 5374
scalar FogSequentialForward.fog[56].dispatcher remoteJobs 5322
scalar FogSequentialForward.fog[56].dispatcher probeQueries 0
scalar FogSequentialForward.fog[56].dispatcher probeAnswers 0
scalar FogSequentialForward.fog[56].dispatcher droppedJobsSLA 0
scalar FogSequentialForward.fog[56].dispatcher jobs_class_1 14304
scalar FogSequentialForward.fog[56].dispatcher remoteJobs_class_1 5322
scalar FogSequentialForward.fog[56].dispatcher localJobs_class_1 8982
scalar FogSequentialForward.fog[56].server[0] rho 1
scalar FogSequentialForward.fog[56].server[0] congestionRatio 0
scalar FogSequentialForward.fog[56].server[0] totalJobs 8982
scalar FogSequentialForward.fog[56].server[0] droppedJobsQueue 2
scalar FogSequentialForward.fog[56].server[0] droppedJobsTimout 0
scalar FogSequentialForward.fog[56].server[0] droppedJobsSLA 5151
scalar FogSequentialForward.fog[56].server[0] droppedJobsTotal 5153
scalar FogSequentialForward.fog[57].dispatcher localJobs 8986
scalar FogSequentialForward.fog[57].dispatcher internalJobs 9104
scalar FogSequentialForward.fog[57].dispatcher externalJobs 5367
scalar FogSequentialForward.fog[57].dispatcher remoteJobs 5485
scalar FogSequentialForward.fog[57].dispatcher probeQueries 0
scalar FogSequentialForward.fog[57].dispatcher probeAnswers 0
scalar FogSequentialForward.fog[57].dispatcher droppedJobsSLA 0
scalar FogSequentialForward.fog[57].dispatcher jobs_class_1 14471
scalar FogSequentialForward.fog[57].dispatcher remoteJobs_class_1 5485
scalar FogSequentialForward.fog[57].dispatcher localJobs_class_1 8986
scalar FogSequentialForward.fog[57].server[0] rho 0.99987506866455
scalar FogSequentialForward.fog[57].server[0] congestionRatio 0
scalar FogSequentialForward.fog[57].server[0] totalJobs 8986
scalar FogSequentialForward.fog[57].server[0] droppedJobsQueue 1
scalar FogSequentialForward.fog[57].server[0] droppedJobsTimout 0
scalar FogSequentialForward.fog[57].server[0] droppedJobsSLA 5259
scalar FogSequentialForward.fog[57].server[0] droppedJobsTotal 5260
scalar FogSequentialForward.fog[58].dispatcher localJobs 9000
scalar FogSequentialForward.fog[58].dispatcher internalJobs 9157
scalar FogSequentialForward.fog[58].dispatcher externalJobs 5462
scalar FogSequentialForward.fog[58].dispatcher remoteJobs 5619
scalar FogSequentialForward.fog[58].dispatcher probeQueries 0
scalar FogSequentialForward.fog[58].dispatcher probeAnswers 0
scalar FogSequentialForward.fog[58].dispatcher droppedJobsSLA 0
scalar FogSequentialForward.fog[58].dispatcher jobs_class_1 14619
scalar FogSequentialForward.fog[58].dispatcher remoteJobs_class_1 5619
scalar FogSequentialForward.fog[58].dispatcher localJobs_class_1 9000
scalar FogSequentialForward.fog[58].server[0] rho 0.99927884340286
scalar FogSequentialForward.fog[58].server[0] congestionRatio 0
scalar FogSequentialForward.fog[58].server[0] totalJobs 9000
scalar FogSequentialForward.fog[58].server[0] droppedJobsQueue 2
scalar FogSequentialForward.fog[58].server[0] droppedJobsTimout 0
scalar FogSequentialForward.fog[58].server[0] droppedJobsSLA 5204
scalar FogSequentialForward.fog[58].server[0] droppedJobsTotal 5206
scalar FogSequentialForward.fog[59].dispatcher localJobs 9049
scalar FogSequentialForward.fog[59].dispatcher internalJobs 8941
scalar FogSequentialForward.fog[59].dispatcher externalJobs 5581
scalar FogSequentialForward.fog[59].dispatcher remoteJobs 5473
scalar FogSequentialForward.fog[59].dispatcher probeQueries 0
scalar FogSequentialForward.fog[59].dispatcher probeAnswers 0
scalar FogSequentialForward.fog[59].dispatcher droppedJobsSLA 0
scalar FogSequentialForward.fog[59].dispatcher jobs_class_1 14522
scalar FogSequentialForward.fog[59].dispatcher remoteJobs_class_1 5473
scalar FogSequentialForward.fog[59].dispatcher localJobs_class_1 9049
scalar FogSequentialForward.fog[59].server[0] rho 1
scalar FogSequentialForward.fog[59].server[0] congestionRatio 0
scalar FogSequentialForward.fog[59].server[0] totalJobs 9049
scalar FogSequentialForward.fog[59].server[0] droppedJobsQueue 2
scalar FogSequentialForward.fog[59].server[0] droppedJobsTimout 0
scalar FogSequentialForward.fog[59].server[0] droppedJobsSLA 5236
scalar FogSequentialForward.fog[59].server[0] droppedJobsTotal 5238
scalar FogSequentialForward.fog[60].dispatcher localJobs 9000
scalar FogSequentialForward.fog[60].dispatcher internalJobs 8864
scalar FogSequentialForward.fog[60].dispatcher externalJobs 5371
scalar FogSequentialForward.fog[60].dispatcher remoteJobs 5235
scalar FogSequentialForward.fog[60].dispatcher probeQueries 0
scalar FogSequentialForward.fog[60].dispatcher probeAnswers 0
scalar FogSequentialForward.fog[60].dispatcher droppedJobsSLA 0
scalar FogSequentialForward.fog[60].dispatcher jobs_class_1 14235
scalar FogSequentialForward.fog[60].dispatcher remoteJobs_class_1 5235
scalar FogSequentialForward.fog[60].dispatcher localJobs_class_1 9000
scalar FogSequentialForward.fog[60].server[0] rho 0.99974000453949
scalar FogSequentialForward.fog[60].server[0] congestionRatio 0
scalar FogSequentialForward.fog[60].server[0] totalJobs 9000
scalar FogSequentialForward.fog[60].server[0] droppedJobsQueue 3
scalar FogSequentialForward.fog[60].server[0] droppedJobsTimout 0
scalar FogSequentialForward.fog[60].server[0] droppedJobsSLA 5149
scalar FogSequentialForward.fog[60].server[0] droppedJobsTotal 5152
scalar FogSequentialForward.fog[61].dispatcher localJobs 9014
scalar FogSequentialForward.fog[61].dispatcher internalJobs 9217
scalar FogSequentialForward.fog[61].dispatcher externalJobs 5360
scalar FogSequentialForward.fog[61].dispatcher remoteJobs 5563
scalar FogSequentialForward.fog[61].dispatcher probeQueries 0
scalar FogSequentialForward.fog[61].dispatcher probeAnswers 0
scalar FogSequentialForward.fog[61].dispatcher droppedJobsSLA 0
scalar FogSequentialForward.fog[61].dispatcher jobs_class_1 14577
scalar FogSequentialForward.fog[61].dispatcher remoteJobs_class_1 5563
scalar FogSequentialForward.fog[61].dispatcher localJobs_class_1 9014
scalar FogSequentialForward.fog[61].server[0] rho 0.99979484081268
scalar FogSequentialForward.fog[61].server[0] congestionRatio 0
scalar FogSequentialForward.fog[61].server[0] totalJobs 9014
scalar FogSequentialForward.fog[61].server[0] droppedJobsQueue 1
scalar FogSequentialForward.fog[61].server[0] droppedJobsTimout 0
scalar FogSequentialForward.fog[61].server[0] droppedJobsSLA 5248
scalar FogSequentialForward.fog[61].server[0] droppedJobsTotal 5249
scalar FogSequentialForward.fog[62].dispatcher localJobs 8987
scalar FogSequentialForward.fog[62].dispatcher internalJobs 8963
scalar FogSequentialForward.fog[62].dispatcher externalJobs 5394
scalar FogSequentialForward.fog[62].dispatcher remoteJobs 5370
scalar FogSequentialForward.fog[62].dispatcher probeQueries 0
scalar FogSequentialForward.fog[62].dispatcher probeAnswers 0
scalar FogSequentialForward.fog[62].dispatcher droppedJobsSLA 0
scalar FogSequentialForward.fog[62].dispatcher jobs_class_1 14357
scalar FogSequentialForward.fog[62].dispatcher remoteJobs_class_1 5370
scalar FogSequentialForward.fog[62].dispatcher localJobs_class_1 8987
scalar FogSequentialForward.fog[62].server[0] rho 1
scalar FogSequentialForward.fog[62].server[0] congestionRatio 0
scalar FogSequentialForward.fog[62].server[0] totalJobs 8987
scalar FogSequentialForward.fog[62].server[0] droppedJobsQueue 1
scalar FogSequentialForward.fog[62].server[0] droppedJobsTimout 0
scalar FogSequentialForward.fog[62].server[0] droppedJobsSLA 5150
scalar FogSequentialForward.fog[62].server[0] droppedJobsTotal 5151
scalar FogSequentialForward.fog[63].dispatcher localJobs 8982
scalar FogSequentialForward.fog[63].dispatcher internalJobs 8754
scalar FogSequentialForward.fog[63].dispatcher externalJobs 5366
scalar FogSequentialForward.fog[63].dispatcher remoteJobs 5138
scalar FogSequentialForward.fog[63].dispatcher probeQueries 0
scalar FogSequentialForward.fog[63].dispatcher probeAnswers 0
scalar FogSequentialForward.fog[63].dispatcher droppedJobsSLA 0
scalar FogSequentialForward.fog[63].dispatcher jobs_class_1 14120
scalar FogSequentialForward.fog[63].dispatcher remoteJobs_class_1 5138
scalar FogSequentialForward.fog[63].dispatcher localJobs_class_1 8982
scalar FogSequentialForward.fog[63].server[0] rho 0.99965524673462
scalar FogSequentialForward.fog[63].server[0] congestionRatio 0
scalar FogSequentialForward.fog[63].server[0] totalJobs 8982
scalar FogSequentialForward.fog[63].server[0] droppedJobsQueue 1
scalar FogSequentialForward.fog[63].server[0] droppedJobsTimout 0
scalar FogSequentialForward.fog[63].server[0] droppedJobsSLA 5117
scalar FogSequentialForward.fog[63].server[0] droppedJobsTotal 5118
scalar FogSequentialForward.fog[64].dispatcher localJobs 9024
scalar FogSequentialForward.fog[64].dispatcher internalJobs 8847
scalar FogSequentialForward.fog[64].dispatcher externalJobs 5487
scalar FogSequentialForward.fog[64].dispatcher remoteJobs 5310
scalar FogSequentialForward.fog[64].dispatcher probeQueries 0
scalar FogSequentialForward.fog[64].dispatcher probeAnswers 0
scalar FogSequentialForward.fog[64].dispatcher droppedJobsSLA 0
scalar FogSequentialForward.fog[64].dispatcher jobs_class_1 14334
scalar FogSequentialForward.fog[64].dispatcher remoteJobs_class_1 5310
scalar FogSequentialForward.fog[64].dispatcher localJobs_class_1 9024
scalar FogSequentialForward.fog[64].server[0] rho 1
scalar FogSequentialForward.fog[64].server[0] congestionRatio 0
scalar FogSequentialForward.fog[64].server[0] totalJobs 9024
scalar FogSequentialForward.fog[64].server[0] droppedJobsQueue 2
scalar FogSequentialForward.fog[64].server[0] droppedJobsTimout 0
scalar FogSequentialForward.fog[64].server[0] droppedJobsSLA 5167
scalar FogSequentialForward.fog[64].server[0] droppedJobsTotal 5169
scalar FogSequentialForward.fog[65].dispatcher localJobs 9038
scalar FogSequentialForward.fog[65].dispatcher internalJobs 9055
scalar FogSequentialForward.fog[65].dispatcher externalJobs 5477
scalar FogSequentialForward.fog[65].dispatcher remoteJobs 5494
scalar FogSequentialForward.fog[65].dispatcher probeQueries 0
scalar FogSequentialForward.fog[65].dispatcher probeAnswers 0
scalar FogSequentialForward.fog[65].dispatcher droppedJobsSLA 0
scalar FogSequentialForward.fog[65].dispatcher jobs_class_1 14532
scalar FogSequentialForward.fog[65].dispatcher remoteJobs_class_1 5494
scalar FogSequentialForward.fog[65].dispatcher localJobs_class_1 9038
scalar FogSequentialForward.fog[65].server[0] rho 0.99994421005249
scalar FogSequentialForward.fog[65].server[0] congestionRatio 0
scalar FogSequentialForward.fog[65].server[0] totalJobs 9038
scalar FogSequentialForward.fog[65].server[0] droppedJobsQueue 3
scalar FogSequentialForward.fog[65].server[0] droppedJobsTimout 0
scalar FogSequentialForward.fog[65].server[0] droppedJobsSLA 5134
scalar FogSequentialForward.fog[65].server[0] droppedJobsTotal 5137
scalar FogSequentialForward.fog[66].dispatcher localJobs 9038
scalar FogSequentialForward.fog[66].dispatcher internalJobs 9104
scalar FogSequentialForward.fog[66].dispatcher externalJobs 5426
scalar FogSequentialForward.fog[66].dispatcher remoteJobs 5492
scalar FogSequentialForward.fog[66].dispatcher probeQueries 0
scalar FogSequentialForward.fog[66].dispatcher probeAnswers 0
scalar FogSequentialForward.fog[66].dispatcher droppedJobsSLA 0
scalar FogSequentialForward.fog[66].dispatcher jobs_class_1 14530
scalar FogSequentialForward.fog[66].dispatcher remoteJobs_class_1 5492
scalar FogSequentialForward.fog[66].dispatcher localJobs_class_1 9038
scalar FogSequentialForward.fog[66].server[0] rho 1
scalar FogSequentialForward.fog[66].server[0] congestionRatio 0
scalar FogSequentialForward.fog[66].server[0] totalJobs 9038
scalar FogSequentialForward.fog[66].server[0] droppedJobsQueue 4
scalar FogSequentialForward.fog[66].server[0] droppedJobsTimout 0
scalar FogSequentialForward.fog[66].server[0] droppedJobsSLA 5248
scalar FogSequentialForward.fog[66].server[0] droppedJobsTotal 5252
scalar FogSequentialForward.fog[67].dispatcher localJobs 8968
scalar FogSequentialForward.fog[67].dispatcher internalJobs 9027
scalar FogSequentialForward.fog[67].dispatcher externalJobs 5272
scalar FogSequentialForward.fog[67].dispatcher remoteJobs 5331
scalar FogSequentialForward.fog[67].dispatcher probeQueries 0
scalar FogSequentialForward.fog[67].dispatcher probeAnswers 0
scalar FogSequentialForward.fog[67].dispatcher droppedJobsSLA 0
scalar FogSequentialForward.fog[67].dispatcher jobs_class_1 14299
scalar FogSequentialForward.fog[67].dispatcher remoteJobs_class_1 5331
scalar FogSequentialForward.fog[67].dispatcher localJobs_class_1 8968
scalar FogSequentialForward.fog[67].server[0] rho 1
scalar FogSequentialForward.fog[67].server[0] congestionRatio 0
scalar FogSequentialForward.fog[67].server[0] totalJobs 8968
scalar FogSequentialForward.fog[67].server[0] droppedJobsQueue 0
scalar FogSequentialForward.fog[67].server[0] droppedJobsTimout 0
scalar FogSequentialForward.fog[67].server[0] droppedJobsSLA 5168
scalar FogSequentialForward.fog[67].server[0] droppedJobsTotal 5168
scalar FogSequentialForward.fog[68].dispatcher localJobs 9040
scalar FogSequentialForward.fog[68].dispatcher internalJobs 9025
scalar FogSequentialForward.fog[68].dispatcher externalJobs 5418
scalar FogSequentialForward.fog[68].dispatcher remoteJobs 5403
scalar FogSequentialForward.fog[68].dispatcher probeQueries 0
scalar FogSequentialForward.fog[68].dispatcher probeAnswers 0
scalar FogSequentialForward.fog[68].dispatcher droppedJobsSLA 0
scalar FogSequentialForward.fog[68].dispatcher jobs_class_1 14443
scalar FogSequentialForward.fog[68].dispatcher remoteJobs_class_1 5403
scalar FogSequentialForward.fog[68].dispatcher localJobs_class_1 9040
scalar FogSequentialForward.fog[68].server[0] rho 0.99974089860916
scalar FogSequentialForward.fog[68].server[0] congestionRatio 0
scalar FogSequentialForward.fog[68].server[0] totalJobs 9040
scalar FogSequentialForward.fog[68].server[0] droppedJobsQueue 2
scalar FogSequentialForward.fog[68].server[0] droppedJobsTimout 0
scalar FogSequentialForward.fog[68].server[0] droppedJobsSLA 5269
scalar FogSequentialForward.fog[68].server[0] droppedJobsTotal 5271
scalar FogSequentialForward.fog[69].dispatcher localJobs 9047
scalar FogSequentialForward.fog[69].dispatcher internalJobs 9105
scalar FogSequentialForward.fog[69].dispatcher externalJobs 5472
scalar FogSequentialForward.fog[69].dispatcher remoteJobs 5530
scalar FogSequentialForward.fog[69].dispatcher probeQueries 0
scalar FogSequentialForward.fog[69].dispatcher probeAnswers 0
scalar FogSequentialForward.fog[69].dispatcher droppedJobsSLA 0
scalar FogSequentialForward.fog[69].dispatcher jobs_class_1 14577
scalar FogSequentialForward.fog[69].dispatcher remoteJobs_class_1 5530
scalar FogSequentialForward.fog[69].dispatcher localJobs_class_1 9047
scalar FogSequentialForward.fog[69].server[0] rho 0.99995148181915
scalar FogSequentialForward.fog[69].server[0] congestionRatio 0
scalar FogSequentialForward.fog[69].server[0] totalJobs 9047
scalar FogSequentialForward.fog[69].server[0] droppedJobsQueue 3
scalar FogSequentialForward.fog[69].server[0] droppedJobsTimout 0
scalar FogSequentialForward.fog[69].server[0] droppedJobsSLA 5173
scalar FogSequentialForward.fog[69].server[0] droppedJobsTotal 5176
scalar FogSequentialForward.fog[70].dispatcher localJobs 8944
scalar FogSequentialForward.fog[70].dispatcher internalJobs 8884
scalar FogSequentialForward.fog[70].dispatcher externalJobs 5362
scalar FogSequentialForward.fog[70].dispatcher remoteJobs 5302
scalar FogSequentialForward.fog[70].dispatcher probeQueries 0
scalar FogSequentialForward.fog[70].dispatcher probeAnswers 0
scalar FogSequentialForward.fog[70].dispatcher droppedJobsSLA 0
scalar FogSequentialForward.fog[70].dispatcher jobs_class_1 14246
scalar FogSequentialForward.fog[70].dispatcher remoteJobs_class_1 5302
scalar FogSequentialForward.fog[70].dispatcher localJobs_class_1 8944
scalar FogSequentialForward.fog[70].server[0] rho 1
scalar FogSequentialForward.fog[70].server[0] congestionRatio 0
scalar FogSequentialForward.fog[70].server[0] totalJobs 8944
scalar FogSequentialForward.fog[70].server[0] droppedJobsQueue 1
scalar FogSequentialForward.fog[70].server[0] droppedJobsTimout 0
scalar FogSequentialForward.fog[70].server[0] droppedJobsSLA 5092
scalar FogSequentialForward.fog[70].server[0] droppedJobsTotal 5093
scalar FogSequentialForward.fog[71].dispatcher localJobs 9002
scalar FogSequentialForward.fog[71].dispatcher internalJobs 9020
scalar FogSequentialForward.fog[71].dispatcher externalJobs 5422
scalar FogSequentialForward.fog[71].dispatcher remoteJobs 5440
scalar FogSequentialForward.fog[71].dispatcher probeQueries 0
scalar FogSequentialForward.fog[71].dispatcher probeAnswers 0
scalar FogSequentialForward.fog[71].dispatcher droppedJobsSLA 0
scalar FogSequentialForward.fog[71].dispatcher jobs_class_1 14442
scalar FogSequentialForward.fog[71].dispatcher remoteJobs_class_1 5440
scalar FogSequentialForward.fog[71].dispatcher localJobs_class_1 9002
scalar FogSequentialForward.fog[71].server[0] rho 1
scalar FogSequentialForward.fog[71].server[0] congestionRatio 0
[...]
scalar FogSequentialForward.fog[82].server[0] droppedJobsTimout 0
scalar FogSequentialForward.fog[82].server[0] droppedJobsSLA 5154
scalar FogSequentialForward.fog[82].server[0] droppedJobsTotal 5154
scalar FogSequentialForward.fog[83].dispatcher localJobs 9020
scalar FogSequentialForward.fog[83].dispatcher internalJobs 8992
scalar FogSequentialForward.fog[83].dispatcher externalJobs 5458
scalar FogSequentialForward.fog[83].dispatcher remoteJobs 5430
scalar FogSequentialForward.fog[83].dispatcher probeQueries 0
scalar FogSequentialForward.fog[83].dispatcher probeAnswers 0
scalar FogSequentialForward.fog[83].dispatcher droppedJobsSLA 0
scalar FogSequentialForward.fog[83].dispatcher jobs_class_1 14450
scalar FogSequentialForward.fog[83].dispatcher remoteJobs_class_1 5430
scalar FogSequentialForward.fog[83].dispatcher localJobs_class_1 9020
scalar FogSequentialForward.fog[83].server[0] rho 0.99994170665741
scalar FogSequentialForward.fog[83].server[0] congestionRatio 0
scalar FogSequentialForward.fog[83].server[0] totalJobs 9020
scalar FogSequentialForward.fog[83].server[0] droppedJobsQueue 2
scalar FogSequentialForward.fog[83].server[0] droppedJobsTimout 0
scalar FogSequentialForward.fog[83].server[0] droppedJobsSLA 5232
scalar FogSequentialForward.fog[83].server[0] droppedJobsTotal 5234
scalar FogSequentialForward.fog[84].dispatcher localJobs 9021
scalar FogSequentialForward.fog[84].dispatcher internalJobs 9116
scalar FogSequentialForward.fog[84].dispatcher externalJobs 5426
scalar FogSequentialForward.fog[84].dispatcher remoteJobs 5521
scalar FogSequentialForward.fog[84].dispatcher probeQueries 0
scalar FogSequentialForward.fog[84].dispatcher probeAnswers 0
scalar FogSequentialForward.fog[84].dispatcher droppedJobsSLA 0
scalar FogSequentialForward.fog[84].dispatcher jobs_class_1 14542
scalar FogSequentialForward.fog[84].dispatcher remoteJobs_class_1 5521
scalar FogSequentialForward.fog[84].dispatcher localJobs_class_1 9021
scalar FogSequentialForward.fog[84].server[0] rho 0.99972140789032
scalar FogSequentialForward.fog[84].server[0] congestionRatio 0
scalar FogSequentialForward.fog[84].server[0] totalJobs 9021
scalar FogSequentialForward.fog[84].server[0] droppedJobsQueue 2
scalar FogSequentialForward.fog[84].server[0] droppedJobsTimout 0
scalar FogSequentialForward.fog[84].server[0] droppedJobsSLA 5189
scalar FogSequentialForward.fog[84].server[0] droppedJobsTotal 5191
scalar FogSequentialForward.fog[85].dispatcher localJobs 9002
scalar FogSequentialForward.fog[85].dispatcher internalJobs 8845
scalar FogSequentialForward.fog[85].dispatcher externalJobs 5498
scalar FogSequentialForward.fog[85].dispatcher remoteJobs 5341
scalar FogSequentialForward.fog[85].dispatcher probeQueries 0
scalar FogSequentialForward.fog[85].dispatcher probeAnswers 0
scalar FogSequentialForward.fog[85].dispatcher droppedJobsSLA 0
scalar FogSequentialForward.fog[85].dispatcher jobs_class_1 14343
scalar FogSequentialForward.fog[85].dispatcher remoteJobs_class_1 5341
scalar FogSequentialForward.fog[85].dispatcher localJobs_class_1 9002
scalar FogSequentialForward.fog[85].server[0] rho 1
scalar FogSequentialForward.fog[85].server[0] congestionRatio 0
scalar FogSequentialForward.fog[85].server[0] totalJobs 9002
scalar FogSequentialForward.fog[85].server[0] droppedJobsQueue 0
scalar FogSequentialForward.fog[85].server[0] droppedJobsTimout 0
scalar FogSequentialForward.fog[85].server[0] droppedJobsSLA 5174
scalar FogSequentialForward.fog[85].server[0] droppedJobsTotal 5174
scalar FogSequentialForward.fog[86].dispatcher localJobs 9054
scalar FogSequentialForward.fog[86].dispatcher internalJobs 9135
scalar FogSequentialForward.fog[86].dispatcher externalJobs 5375
scalar FogSequentialForward.fog[86].dispatcher remoteJobs 5456
scalar FogSequentialForward.fog[86].dispatcher probeQueries 0
scalar FogSequentialForward.fog[86].dispatcher probeAnswers 0
scalar FogSequentialForward.fog[86].dispatcher droppedJobsSLA 0
scalar FogSequentialForward.fog[86].dispatcher jobs_class_1 14510
scalar FogSequentialForward.fog[86].dispatcher remoteJobs_class_1 5456
scalar FogSequentialForward.fog[86].dispatcher localJobs_class_1 9054
scalar FogSequentialForward.fog[86].server[0] rho 1
scalar FogSequentialForward.fog[86].server[0] congestionRatio 0
scalar FogSequentialForward.fog[86].server[0] totalJobs 9054
scalar FogSequentialForward.fog[86].server[0] droppedJobsQueue 2
scalar FogSequentialForward.fog[86].server[0] droppedJobsTimout 0
scalar FogSequentialForward.fog[86].server[0] droppedJobsSLA 5254
scalar FogSequentialForward.fog[86].server[0] droppedJobsTotal 5256
scalar FogSequentialForward.fog[87].dispatcher localJobs 9008
scalar FogSequentialForward.fog[87].dispatcher internalJobs 9142
scalar FogSequentialForward.fog[87].dispatcher externalJobs 5417
scalar FogSequentialForward.fog[87].dispatcher remoteJobs 5551
scalar FogSequentialForward.fog[87].dispatcher probeQueries 0
scalar FogSequentialForward.fog[87].dispatcher probeAnswers 0
scalar FogSequentialForward.fog[87].dispatcher droppedJobsSLA 0
scalar FogSequentialForward.fog[87].dispatcher jobs_class_1 14559
scalar FogSequentialForward.fog[87].dispatcher remoteJobs_class_1 5551
scalar FogSequentialForward.fog[87].dispatcher localJobs_class_1 9008
scalar FogSequentialForward.fog[87].server[0] rho 0.99991595745087
scalar FogSequentialForward.fog[87].server[0] congestionRatio 0
scalar FogSequentialForward.fog[87].server[0] totalJobs 9008
scalar FogSequentialForward.fog[87].server[0] droppedJobsQueue 0
scalar FogSequentialForward.fog[87].server[0] droppedJobsTimout 0
scalar FogSequentialForward.fog[87].server[0] droppedJobsSLA 5211
scalar FogSequentialForward.fog[87].server[0] droppedJobsTotal 5211
scalar FogSequentialForward.fog[88].dispatcher localJobs 9013
scalar FogSequentialForward.fog[88].dispatcher internalJobs 8994
scalar FogSequentialForward.fog[88].dispatcher externalJobs 5440
scalar FogSequentialForward.fog[88].dispatcher remoteJobs 5421
scalar FogSequentialForward.fog[88].dispatcher probeQueries 0
scalar FogSequentialForward.fog[88].dispatcher probeAnswers 0
scalar FogSequentialForward.fog[88].dispatcher droppedJobsSLA 0
scalar FogSequentialForward.fog[88].dispatcher jobs_class_1 14434
scalar FogSequentialForward.fog[88].dispatcher remoteJobs_class_1 5421
scalar FogSequentialForward.fog[88].dispatcher localJobs_class_1 9013
scalar FogSequentialForward.fog[88].server[0] rho 1
scalar FogSequentialForward.fog[88].server[0] congestionRatio 0
scalar FogSequentialForward.fog[88].server[0] totalJobs 9013
scalar FogSequentialForward.fog[88].server[0] droppedJobsQueue 7
scalar FogSequentialForward.fog[88].server[0] droppedJobsTimout 0
scalar FogSequentialForward.fog[88].server[0] droppedJobsSLA 5186
scalar FogSequentialForward.fog[88].server[0] droppedJobsTotal 5193
scalar FogSequentialForward.fog[89].dispatcher localJobs 9020
scalar FogSequentialForward.fog[89].dispatcher internalJobs 9114
scalar FogSequentialForward.fog[89].dispatcher externalJobs 5390
scalar FogSequentialForward.fog[89].dispatcher remoteJobs 5484
scalar FogSequentialForward.fog[89].dispatcher probeQueries 0
scalar FogSequentialForward.fog[89].dispatcher probeAnswers 0
scalar FogSequentialForward.fog[89].dispatcher droppedJobsSLA 0
scalar FogSequentialForward.fog[89].dispatcher jobs_class_1 14504
scalar FogSequentialForward.fog[89].dispatcher remoteJobs_class_1 5484
scalar FogSequentialForward.fog[89].dispatcher localJobs_class_1 9020
scalar FogSequentialForward.fog[89].server[0] rho 0.99992966651917
scalar FogSequentialForward.fog[89].server[0] congestionRatio 0
scalar FogSequentialForward.fog[89].server[0] totalJobs 9020
scalar FogSequentialForward.fog[89].server[0] droppedJobsQueue 3
scalar FogSequentialForward.fog[89].server[0] droppedJobsTimout 0
scalar FogSequentialForward.fog[89].server[0] droppedJobsSLA 5207
scalar FogSequentialForward.fog[89].server[0] droppedJobsTotal 5210
scalar FogSequentialForward.fog[90].dispatcher localJobs 9003
scalar FogSequentialForward.fog[90].dispatcher internalJobs 8970
scalar FogSequentialForward.fog[90].dispatcher externalJobs 5382
scalar FogSequentialForward.fog[90].dispatcher remoteJobs 5349
scalar FogSequentialForward.fog[90].dispatcher probeQueries 0
scalar FogSequentialForward.fog[90].dispatcher probeAnswers 0
scalar FogSequentialForward.fog[90].dispatcher droppedJobsSLA 0
scalar FogSequentialForward.fog[90].dispatcher jobs_class_1 14352
scalar FogSequentialForward.fog[90].dispatcher remoteJobs_class_1 5349
scalar FogSequentialForward.fog[90].dispatcher localJobs_class_1 9003
scalar FogSequentialForward.fog[90].server[0] rho 1
scalar FogSequentialForward.fog[90].server[0] congestionRatio 0
scalar FogSequentialForward.fog[90].server[0] totalJobs 9003
scalar FogSequentialForward.fog[90].server[0] droppedJobsQueue 4
scalar FogSequentialForward.fog[90].server[0] droppedJobsTimout 0
scalar FogSequentialForward.fog[90].server[0] droppedJobsSLA 5223
scalar FogSequentialForward.fog[90].server[0] droppedJobsTotal 5227
scalar FogSequentialForward.fog[91].dispatcher localJobs 8984
scalar FogSequentialForward.fog[91].dispatcher internalJobs 8965
scalar FogSequentialForward.fog[91].dispatcher externalJobs 5258
scalar FogSequentialForward.fog[91].dispatcher remoteJobs 5239
scalar FogSequentialForward.fog[91].dispatcher probeQueries 0
scalar FogSequentialForward.fog[91].dispatcher probeAnswers 0
scalar FogSequentialForward.fog[91].dispatcher droppedJobsSLA 0
scalar FogSequentialForward.fog[91].dispatcher jobs_class_1 14223
scalar FogSequentialForward.fog[91].dispatcher remoteJobs_class_1 5239
scalar FogSequentialForward.fog[91].dispatcher localJobs_class_1 8984
scalar FogSequentialForward.fog[91].server[0] rho 0.99967962503433
scalar FogSequentialForward.fog[91].server[0] congestionRatio 0
scalar FogSequentialForward.fog[91].server[0] totalJobs 8984
scalar FogSequentialForward.fog[91].server[0] droppedJobsQueue 0
scalar FogSequentialForward.fog[91].server[0] droppedJobsTimout 0
scalar FogSequentialForward.fog[91].server[0] droppedJobsSLA 5180
scalar FogSequentialForward.fog[91].server[0] droppedJobsTotal 5180
scalar FogSequentialForward.fog[92].dispatcher localJobs 9017
scalar FogSequentialForward.fog[92].dispatcher internalJobs 8980
scalar FogSequentialForward.fog[92].dispatcher externalJobs 5525
scalar FogSequentialForward.fog[92].dispatcher remoteJobs 5488
scalar FogSequentialForward.fog[92].dispatcher probeQueries 0
scalar FogSequentialForward.fog[92].dispatcher probeAnswers 0
scalar FogSequentialForward.fog[92].dispatcher droppedJobsSLA 0
scalar FogSequentialForward.fog[92].dispatcher jobs_class_1 14505
scalar FogSequentialForward.fog[92].dispatcher remoteJobs_class_1 5488
scalar FogSequentialForward.fog[92].dispatcher localJobs_class_1 9017
scalar FogSequentialForward.fog[92].server[0] rho 1
scalar FogSequentialForward.fog[92].server[0] congestionRatio 0
scalar FogSequentialForward.fog[92].server[0] totalJobs 9017
scalar FogSequentialForward.fog[92].server[0] droppedJobsQueue 0
scalar FogSequentialForward.fog[92].server[0] droppedJobsTimout 0
scalar FogSequentialForward.fog[92].server[0] droppedJobsSLA 5176
scalar FogSequentialForward.fog[92].server[0] droppedJobsTotal 5176
scalar FogSequentialForward.fog[93].dispatcher localJobs 9034
scalar FogSequentialForward.fog[93].dispatcher internalJobs 9086
scalar FogSequentialForward.fog[93].dispatcher externalJobs 5497
scalar FogSequentialForward.fog[93].dispatcher remoteJobs 5549
scalar FogSequentialForward.fog[93].dispatcher probeQueries 0
scalar FogSequentialForward.fog[93].dispatcher probeAnswers 0
scalar FogSequentialForward.fog[93].dispatcher droppedJobsSLA 0
scalar FogSequentialForward.fog[93].dispatcher jobs_class_1 14583
scalar FogSequentialForward.fog[93].dispatcher remoteJobs_class_1 5549
scalar FogSequentialForward.fog[93].dispatcher localJobs_class_1 9034
scalar FogSequentialForward.fog[93].server[0] rho 1
scalar FogSequentialForward.fog[93].server[0] congestionRatio 0
scalar FogSequentialForward.fog[93].server[0] totalJobs 9034
scalar FogSequentialForward.fog[93].server[0] droppedJobsQueue 2
scalar FogSequentialForward.fog[93].server[0] droppedJobsTimout 0
scalar FogSequentialForward.fog[93].server[0] droppedJobsSLA 5156
scalar FogSequentialForward.fog[93].server[0] droppedJobsTotal 5158
scalar FogSequentialForward.fog[94].dispatcher localJobs 8996
scalar FogSequentialForward.fog[94].dispatcher internalJobs 9105
scalar FogSequentialForward.fog[94].dispatcher externalJobs 5351
scalar FogSequentialForward.fog[94].dispatcher remoteJobs 5460
scalar FogSequentialForward.fog[94].dispatcher probeQueries 0
scalar FogSequentialForward.fog[94].dispatcher probeAnswers 0
scalar FogSequentialForward.fog[94].dispatcher droppedJobsSLA 0
scalar FogSequentialForward.fog[94].dispatcher jobs_class_1 14456
scalar FogSequentialForward.fog[94].dispatcher remoteJobs_class_1 5460
scalar FogSequentialForward.fog[94].dispatcher localJobs_class_1 8996
scalar FogSequentialForward.fog[94].server[0] rho 0.99977225065231
scalar FogSequentialForward.fog[94].server[0] congestionRatio 0
scalar FogSequentialForward.fog[94].server[0] totalJobs 8996
scalar FogSequentialForward.fog[94].server[0] droppedJobsQueue 0
scalar FogSequentialForward.fog[94].server[0] droppedJobsTimout 0
scalar FogSequentialForward.fog[94].server[0] droppedJobsSLA 5220
scalar FogSequentialForward.fog[94].server[0] droppedJobsTotal 5220
scalar FogSequentialForward.fog[95].dispatcher localJobs 9012
scalar FogSequentialForward.fog[95].dispatcher internalJobs 9085
scalar FogSequentialForward.fog[95].dispatcher externalJobs 5286
scalar FogSequentialForward.fog[95].dispatcher remoteJobs 5359
scalar FogSequentialForward.fog[95].dispatcher probeQueries 0
scalar FogSequentialForward.fog[95].dispatcher probeAnswers 0
scalar FogSequentialForward.fog[95].dispatcher droppedJobsSLA 0
scalar FogSequentialForward.fog[95].dispatcher jobs_class_1 14371
scalar FogSequentialForward.fog[95].dispatcher remoteJobs_class_1 5359
scalar FogSequentialForward.fog[95].dispatcher localJobs_class_1 9012
scalar FogSequentialForward.fog[95].server[0] rho 1
scalar FogSequentialForward.fog[95].server[0] congestionRatio 0
scalar FogSequentialForward.fog[95].server[0] totalJobs 9012
scalar FogSequentialForward.fog[95].server[0] droppedJobsQueue 3
scalar FogSequentialForward.fog[95].server[0] droppedJobsTimout 0
scalar FogSequentialForward.fog[95].server[0] droppedJobsSLA 5180
scalar FogSequentialForward.fog[95].server[0] droppedJobsTotal 5183
scalar FogSequentialForward.fog[96].dispatcher localJobs 8993
scalar FogSequentialForward.fog[96].dispatcher internalJobs 8920
scalar FogSequentialForward.fog[96].dispatcher externalJobs 5481
scalar FogSequentialForward.fog[96].dispatcher remoteJobs 5408
scalar FogSequentialForward.fog[96].dispatcher probeQueries 0
scalar FogSequentialForward.fog[96].dispatcher probeAnswers 0
scalar FogSequentialForward.fog[96].dispatcher droppedJobsSLA 0
scalar FogSequentialForward.fog[96].dispatcher jobs_class_1 14401
scalar FogSequentialForward.fog[96].dispatcher remoteJobs_class_1 5408
scalar FogSequentialForward.fog[96].dispatcher localJobs_class_1 8993
scalar FogSequentialForward.fog[96].server[0] rho 1
scalar FogSequentialForward.fog[96].server[0] congestionRatio 0
scalar FogSequentialForward.fog[96].server[0] totalJobs 8993
scalar FogSequentialForward.fog[96].server[0] droppedJobsQueue 1
scalar FogSequentialForward.fog[96].server[0] droppedJobsTimout 0
scalar FogSequentialForward.fog[96].server[0] droppedJobsSLA 5145
scalar FogSequentialForward.fog[96].server[0] droppedJobsTotal 5146
scalar FogSequentialForward.fog[97].dispatcher localJobs 9042
scalar FogSequentialForward.fog[97].dispatcher internalJobs 9125
scalar FogSequentialForward.fog[97].dispatcher externalJobs 5378
scalar FogSequentialForward.fog[97].dispatcher remoteJobs 5461
scalar FogSequentialForward.fog[97].dispatcher probeQueries 0
scalar FogSequentialForward.fog[97].dispatcher probeAnswers 0
scalar FogSequentialForward.fog[97].dispatcher droppedJobsSLA 0
scalar FogSequentialForward.fog[97].dispatcher jobs_class_1 14503
scalar FogSequentialForward.fog[97].dispatcher remoteJobs_class_1 5461
scalar FogSequentialForward.fog[97].dispatcher localJobs_class_1 9042
scalar FogSequentialForward.fog[97].server[0] rho 1
scalar FogSequentialForward.fog[97].server[0] congestionRatio 0
scalar FogSequentialForward.fog[97].server[0] totalJobs 9042
scalar FogSequentialForward.fog[97].server[0] droppedJobsQueue 2
scalar FogSequentialForward.fog[97].server[0] droppedJobsTimout 0
scalar FogSequentialForward.fog[97].server[0] droppedJobsSLA 5148
scalar FogSequentialForward.fog[97].server[0] droppedJobsTotal 5150
scalar FogSequentialForward.fog[98].dispatcher localJobs 9012
scalar FogSequentialForward.fog[98].dispatcher internalJobs 8987
scalar FogSequentialForward.fog[98].dispatcher externalJobs 5398
scalar FogSequentialForward.fog[98].dispatcher remoteJobs 5373
scalar FogSequentialForward.fog[98].dispatcher probeQueries 0
scalar FogSequentialForward.fog[98].dispatcher probeAnswers 0
scalar FogSequentialForward.fog[98].dispatcher droppedJobsSLA 0
scalar FogSequentialForward.fog[98].dispatcher jobs_class_1 14385
scalar FogSequentialForward.fog[98].dispatcher remoteJobs_class_1 5373
scalar FogSequentialForward.fog[98].dispatcher localJobs_class_1 9012
scalar FogSequentialForward.fog[98].server[0] rho 0.99980676174164
scalar FogSequentialForward.fog[98].server[0] congestionRatio 0
scalar FogSequentialForward.fog[98].server[0] totalJobs 9012
scalar FogSequentialForward.fog[98].server[0] droppedJobsQueue 1
scalar FogSequentialForward.fog[98].server[0] droppedJobsTimout 0
scalar FogSequentialForward.fog[98].server[0] droppedJobsSLA 5166
scalar FogSequentialForward.fog[98].server[0] droppedJobsTotal 5167
scalar FogSequentialForward.fog[99].dispatcher localJobs 9011
scalar FogSequentialForward.fog[99].dispatcher internalJobs 9007
scalar FogSequentialForward.fog[99].dispatcher externalJobs 5380
scalar FogSequentialForward.fog[99].dispatcher remoteJobs 5376
scalar FogSequentialForward.fog[99].dispatcher probeQueries 0
scalar FogSequentialForward.fog[99].dispatcher probeAnswers 0
scalar FogSequentialForward.fog[99].dispatcher droppedJobsSLA 0
scalar FogSequentialForward.fog[99].dispatcher jobs_class_1 14387
scalar FogSequentialForward.fog[99].dispatcher remoteJobs_class_1 5376
scalar FogSequentialForward.fog[99].dispatcher localJobs_class_1 9011
scalar FogSequentialForward.fog[99].server[0] rho 0.99995440244675
scalar FogSequentialForward.fog[99].server[0] congestionRatio 0
scalar FogSequentialForward.fog[99].server[0] totalJobs 9011
scalar FogSequentialForward.fog[99].server[0] droppedJobsQueue 1
scalar FogSequentialForward.fog[99].server[0] droppedJobsTimout 0
scalar FogSequentialForward.fog[99].server[0] droppedJobsSLA 5100
scalar FogSequentialForward.fog[99].server[0] droppedJobsTotal 5101
scalar FogSequentialForward.sink avg_responseTime_1 14.727895275315
scalar FogSequentialForward.sink p90_responseTime_1 1.584918649799
scalar FogSequentialForward.sink med_responseTime_1 1.584918649799
scalar FogSequentialForward.sink avg_delayTime_1 0
scalar FogSequentialForward.sink p90_delayTime_1 0
scalar FogSequentialForward.sink med_delayTime_1 0
scalar FogSequentialForward.sink avg_queuingTime_1 13.043707066566
scalar FogSequentialForward.sink p90_queuingTime_1 0
scalar FogSequentialForward.sink med_queuingTime_1 0
scalar FogSequentialForward.sink avg_serviceTime_1 1.6743686078741
scalar FogSequentialForward.sink p90_serviceTime_1 1.509678963042
scalar FogSequentialForward.sink med_serviceTime_1 1.509678963042
scalar FogSequentialForward.sink avg_balancerTime_1 0.0098196008752959
scalar FogSequentialForward.sink p90_balancerTime_1 0
scalar FogSequentialForward.sink med_balancerTime_1 0
scalar FogSequentialForward.sink avg_balancerCount_1 1.588000052413
scalar FogSequentialForward.sink p90_balancerCount_1 1
scalar FogSequentialForward.sink med_balancerCount_1 1

