version 2
run Fog-mul_10-rho_02-thr_1-4-20190714-01:53:12-88728
attr configname Fog-mul_10-rho_02-thr_1
attr datetime 20190714-01:53:12
attr experiment Fog-mul_10-rho_02-thr_1
attr inifile FogSequentialForward.ini
attr iterationvars ""
attr iterationvarsf ""
attr measurement ""
attr network FogSequentialForward
attr processid 88728
attr repetition 4
attr replication #4
attr resultdir results
attr runnumber 4
attr seedset 4
param FogSequentialForward.proctimeMul 1.0
param FogSequentialForward.rho 0.2
param FogSequentialForward.fog[*].dispatcher.thr 1
param FogSequentialForward.nSources 100
param FogSequentialForward.rho 0.9
param FogSequentialForward.proctimeMul 1.0
param FogSequentialForward.source[*].appId 1
param FogSequentialForward.source[*].realTime true
param FogSequentialForward.source[*].multiHop true
param FogSequentialForward.fog[*].nServers 1
param FogSequentialForward.fog[*].dispatcher.fanOut 1
param FogSequentialForward.fog[*].server[*].timeSlice -1s
param FogSequentialForward.fog[*].server[*].timeout -1s
param FogSequentialForward.fog[*].server[*].capacity 20
param FogSequentialForward.fog[*].server[*].fifo true
param FogSequentialForward.fog[*].server[*].maxServiceTime -1s
param FogSequentialForward.fog[*].dispatcher.thr 1

scalar FogSequentialForward.fog[0].dispatcher localJobs 1
scalar FogSequentialForward.fog[0].dispatcher internalJobs 3505
scalar FogSequentialForward.fog[0].dispatcher externalJobs 3597679
scalar FogSequentialForward.fog[0].dispatcher remoteJobs 3597626
scalar FogSequentialForward.fog[0].dispatcher probeQueries 0
scalar FogSequentialForward.fog[0].dispatcher probeAnswers 0
scalar FogSequentialForward.fog[0].dispatcher droppedJobsSLA 3557
scalar FogSequentialForward.fog[0].dispatcher jobs_class_1 3601184
scalar FogSequentialForward.fog[0].dispatcher remoteJobs_class_1 3597626
scalar FogSequentialForward.fog[0].dispatcher localJobs_class_1 1
scalar FogSequentialForward.fog[0].dispatcher droppedJobsSLA_class_1 3557
scalar FogSequentialForward.fog[0].server[0] rho 0.00016169430455193
scalar FogSequentialForward.fog[0].server[0] congestionRatio 0
scalar FogSequentialForward.fog[0].server[0] totalJobs 1
scalar FogSequentialForward.fog[0].server[0] droppedJobsQueue 0
scalar FogSequentialForward.fog[0].server[0] droppedJobsTimout 0
scalar FogSequentialForward.fog[0].server[0] droppedJobsSLA 0
scalar FogSequentialForward.fog[0].server[0] droppedJobsTotal 0
scalar FogSequentialForward.fog[1].dispatcher localJobs 1
scalar FogSequentialForward.fog[1].dispatcher internalJobs 3606
scalar FogSequentialForward.fog[1].dispatcher externalJobs 3596780
scalar FogSequentialForward.fog[1].dispatcher remoteJobs 3596849
scalar FogSequentialForward.fog[1].dispatcher probeQueries 0
scalar FogSequentialForward.fog[1].dispatcher probeAnswers 0
scalar FogSequentialForward.fog[1].dispatcher droppedJobsSLA 3536
scalar FogSequentialForward.fog[1].dispatcher jobs_class_1 3600386
scalar FogSequentialForward.fog[1].dispatcher remoteJobs_class_1 3596849
scalar FogSequentialForward.fog[1].dispatcher localJobs_class_1 1
scalar FogSequentialForward.fog[1].dispatcher droppedJobsSLA_class_1 3536
scalar FogSequentialForward.fog[1].server[0] rho 0.00015665202226955
scalar FogSequentialForward.fog[1].server[0] congestionRatio 0
scalar FogSequentialForward.fog[1].server[0] totalJobs 1
scalar FogSequentialForward.fog[1].server[0] droppedJobsQueue 0
scalar FogSequentialForward.fog[1].server[0] droppedJobsTimout 0
scalar FogSequentialForward.fog[1].server[0] droppedJobsSLA 0
scalar FogSequentialForward.fog[1].server[0] droppedJobsTotal 0
scalar FogSequentialForward.fog[2].dispatcher localJobs 1
scalar FogSequentialForward.fog[2].dispatcher internalJobs 3551
scalar FogSequentialForward.fog[2].dispatcher externalJobs 3597929
scalar FogSequentialForward.fog[2].dispatcher remoteJobs 3597832
scalar FogSequentialForward.fog[2].dispatcher probeQueries 0
scalar FogSequentialForward.fog[2].dispatcher probeAnswers 0
scalar FogSequentialForward.fog[2].dispatcher droppedJobsSLA 3647
scalar FogSequentialForward.fog[2].dispatcher jobs_class_1 3601480
scalar FogSequentialForward.fog[2].dispatcher remoteJobs_class_1 3597832
scalar FogSequentialForward.fog[2].dispatcher localJobs_class_1 1
scalar FogSequentialForward.fog[2].dispatcher droppedJobsSLA_class_1 3647
scalar FogSequentialForward.fog[2].server[0] rho 0.000150540843606
scalar FogSequentialForward.fog[2].server[0] congestionRatio 0
scalar FogSequentialForward.fog[2].server[0] totalJobs 1
scalar FogSequentialForward.fog[2].server[0] droppedJobsQueue 0
scalar FogSequentialForward.fog[2].server[0] droppedJobsTimout 0
scalar FogSequentialForward.fog[2].server[0] droppedJobsSLA 0
scalar FogSequentialForward.fog[2].server[0] droppedJobsTotal 0
scalar FogSequentialForward.fog[3].dispatcher localJobs 2
scalar FogSequentialForward.fog[3].dispatcher internalJobs 3514
scalar FogSequentialForward.fog[3].dispatcher externalJobs 3600303
scalar FogSequentialForward.fog[3].dispatcher remoteJobs 3600231
scalar FogSequentialForward.fog[3].dispatcher probeQueries 0
scalar FogSequentialForward.fog[3].dispatcher probeAnswers 0
scalar FogSequentialForward.fog[3].dispatcher droppedJobsSLA 3584
scalar FogSequentialForward.fog[3].dispatcher jobs_class_1 3603817
scalar FogSequentialForward.fog[3].dispatcher remoteJobs_class_1 3600231
scalar FogSequentialForward.fog[3].dispatcher localJobs_class_1 2
scalar FogSequentialForward.fog[3].dispatcher droppedJobsSLA_class_1 3584
scalar FogSequentialForward.fog[3].server[0] rho 0.00031072364072315
scalar FogSequentialForward.fog[3].server[0] congestionRatio 0
scalar FogSequentialForward.fog[3].server[0] totalJobs 2
scalar FogSequentialForward.fog[3].server[0] droppedJobsQueue 0
scalar FogSequentialForward.fog[3].server[0] droppedJobsTimout 0
scalar FogSequentialForward.fog[3].server[0] droppedJobsSLA 0
scalar FogSequentialForward.fog[3].server[0] droppedJobsTotal 0
scalar FogSequentialForward.fog[4].dispatcher localJobs 3
scalar FogSequentialForward.fog[4].dispatcher internalJobs 3590
scalar FogSequentialForward.fog[4].dispatcher externalJobs 3593892
scalar FogSequentialForward.fog[4].dispatcher remoteJobs 3593866
scalar FogSequentialForward.fog[4].dispatcher probeQueries 0
scalar FogSequentialForward.fog[4].dispatcher probeAnswers 0
scalar FogSequentialForward.fog[4].dispatcher droppedJobsSLA 3613
scalar FogSequentialForward.fog[4].dispatcher jobs_class_1 3597482
scalar FogSequentialForward.fog[4].dispatcher remoteJobs_class_1 3593866
scalar FogSequentialForward.fog[4].dispatcher localJobs_class_1 3
scalar FogSequentialForward.fog[4].dispatcher droppedJobsSLA_class_1 3613
scalar FogSequentialForward.fog[4].server[0] rho 0.00047091484884731
scalar FogSequentialForward.fog[4].server[0] congestionRatio 0
scalar FogSequentialForward.fog[4].server[0] totalJobs 3
scalar FogSequentialForward.fog[4].server[0] droppedJobsQueue 0
scalar FogSequentialForward.fog[4].server[0] droppedJobsTimout 0
scalar FogSequentialForward.fog[4].server[0] droppedJobsSLA 0
scalar FogSequentialForward.fog[4].server[0] droppedJobsTotal 0
scalar FogSequentialForward.fog[5].dispatcher localJobs 1
scalar FogSequentialForward.fog[5].dispatcher internalJobs 3590
scalar FogSequentialForward.fog[5].dispatcher externalJobs 3595998
scalar FogSequentialForward.fog[5].dispatcher remoteJobs 3595953
scalar FogSequentialForward.fog[5].dispatcher probeQueries 0
scalar FogSequentialForward.fog[5].dispatcher probeAnswers 0
scalar FogSequentialForward.fog[5].dispatcher droppedJobsSLA 3634
scalar FogSequentialForward.fog[5].dispatcher jobs_class_1 3599588
scalar FogSequentialForward.fog[5].dispatcher remoteJobs_class_1 3595953
scalar FogSequentialForward.fog[5].dispatcher localJobs_class_1 1
scalar FogSequentialForward.fog[5].dispatcher droppedJobsSLA_class_1 3634
scalar FogSequentialForward.fog[5].server[0] rho 0.00015453291416634
scalar FogSequentialForward.fog[5].server[0] congestionRatio 0
scalar FogSequentialForward.fog[5].server[0] totalJobs 1
scalar FogSequentialForward.fog[5].server[0] droppedJobsQueue 0
scalar FogSequentialForward.fog[5].server[0] droppedJobsTimout 0
scalar FogSequentialForward.fog[5].server[0] droppedJobsSLA 0
scalar FogSequentialForward.fog[5].server[0] droppedJobsTotal 0
scalar FogSequentialForward.fog[6].dispatcher localJobs 1
scalar FogSequentialForward.fog[6].dispatcher internalJobs 3446
scalar FogSequentialForward.fog[6].dispatcher externalJobs 3595278
scalar FogSequentialForward.fog[6].dispatcher remoteJobs 3595043
scalar FogSequentialForward.fog[6].dispatcher probeQueries 0
scalar FogSequentialForward.fog[6].dispatcher probeAnswers 0
scalar FogSequentialForward.fog[6].dispatcher droppedJobsSLA 3680
scalar FogSequentialForward.fog[6].dispatcher jobs_class_1 3598724
scalar FogSequentialForward.fog[6].dispatcher remoteJobs_class_1 3595043
scalar FogSequentialForward.fog[6].dispatcher localJobs_class_1 1
scalar FogSequentialForward.fog[6].dispatcher droppedJobsSLA_class_1 3680
scalar FogSequentialForward.fog[6].server[0] rho 0.00015224085655063
scalar FogSequentialForward.fog[6].server[0] congestionRatio 0
scalar FogSequentialForward.fog[6].server[0] totalJobs 1
scalar FogSequentialForward.fog[6].server[0] droppedJobsQueue 0
scalar FogSequentialForward.fog[6].server[0] droppedJobsTimout 0
scalar FogSequentialForward.fog[6].server[0] droppedJobsSLA 0
scalar FogSequentialForward.fog[6].server[0] droppedJobsTotal 0
scalar FogSequentialForward.fog[7].dispatcher localJobs 1
scalar FogSequentialForward.fog[7].dispatcher internalJobs 3474
scalar FogSequentialForward.fog[7].dispatcher externalJobs 3599793
scalar FogSequentialForward.fog[7].dispatcher remoteJobs 3599647
scalar FogSequentialForward.fog[7].dispatcher probeQueries 0
scalar FogSequentialForward.fog[7].dispatcher probeAnswers 0
scalar FogSequentialForward.fog[7].dispatcher droppedJobsSLA 3619
scalar FogSequentialForward.fog[7].dispatcher jobs_class_1 3603267
scalar FogSequentialForward.fog[7].dispatcher remoteJobs_class_1 3599647
scalar FogSequentialForward.fog[7].dispatcher localJobs_class_1 1
scalar FogSequentialForward.fog[7].dispatcher droppedJobsSLA_class_1 3619
scalar FogSequentialForward.fog[7].server[0] rho 0.00015473907114938
scalar FogSequentialForward.fog[7].server[0] congestionRatio 0
scalar FogSequentialForward.fog[7].server[0] totalJobs 1
scalar FogSequentialForward.fog[7].server[0] droppedJobsQueue 0
scalar FogSequentialForward.fog[7].server[0] droppedJobsTimout 0
scalar FogSequentialForward.fog[7].server[0] droppedJobsSLA 0
scalar FogSequentialForward.fog[7].server[0] droppedJobsTotal 0
scalar FogSequentialForward.fog[8].dispatcher localJobs 1
scalar FogSequentialForward.fog[8].dispatcher internalJobs 3606
scalar FogSequentialForward.fog[8].dispatcher externalJobs 3599525
scalar FogSequentialForward.fog[8].dispatcher remoteJobs 3599531
scalar FogSequentialForward.fog[8].dispatcher probeQueries 0
scalar FogSequentialForward.fog[8].dispatcher probeAnswers 0
scalar FogSequentialForward.fog[8].dispatcher droppedJobsSLA 3599
scalar FogSequentialForward.fog[8].dispatcher jobs_class_1 3603131
scalar FogSequentialForward.fog[8].dispatcher remoteJobs_class_1 3599531
scalar FogSequentialForward.fog[8].dispatcher localJobs_class_1 1
scalar FogSequentialForward.fog[8].dispatcher droppedJobsSLA_class_1 3599
scalar FogSequentialForward.fog[8].server[0] rho 0.0001503452367615
scalar FogSequentialForward.fog[8].server[0] congestionRatio 0
scalar FogSequentialForward.fog[8].server[0] totalJobs 1
scalar FogSequentialForward.fog[8].server[0] droppedJobsQueue 0
scalar FogSequentialForward.fog[8].server[0] droppedJobsTimout 0
scalar FogSequentialForward.fog[8].server[0] droppedJobsSLA 0
scalar FogSequentialForward.fog[8].server[0] droppedJobsTotal 0
scalar FogSequentialForward.fog[9].dispatcher localJobs 2
scalar FogSequentialForward.fog[9].dispatcher internalJobs 3573
scalar FogSequentialForward.fog[9].dispatcher externalJobs 3594135
scalar FogSequentialForward.fog[9].dispatcher remoteJobs 3594160
scalar FogSequentialForward.fog[9].dispatcher probeQueries 0
scalar FogSequentialForward.fog[9].dispatcher probeAnswers 0
scalar FogSequentialForward.fog[9].dispatcher droppedJobsSLA 3546
scalar FogSequentialForward.fog[9].dispatcher jobs_class_1 3597708
scalar FogSequentialForward.fog[9].dispatcher remoteJobs_class_1 3594160
scalar FogSequentialForward.fog[9].dispatcher localJobs_class_1 2
scalar FogSequentialForward.fog[9].dispatcher droppedJobsSLA_class_1 3546
scalar FogSequentialForward.fog[9].server[0] rho 0.00031319906702265
scalar FogSequentialForward.fog[9].server[0] congestionRatio 0
scalar FogSequentialForward.fog[9].server[0] totalJobs 2
scalar FogSequentialForward.fog[9].server[0] droppedJobsQueue 0
scalar FogSequentialForward.fog[9].server[0] droppedJobsTimout 0
scalar FogSequentialForward.fog[9].server[0] droppedJobsSLA 0
scalar FogSequentialForward.fog[9].server[0] droppedJobsTotal 0
scalar FogSequentialForward.fog[10].dispatcher localJobs 2
scalar FogSequentialForward.fog[10].dispatcher internalJobs 3620
scalar FogSequentialForward.fog[10].dispatcher externalJobs 3596635
scalar FogSequentialForward.fog[10].dispatcher remoteJobs 3596706
scalar FogSequentialForward.fog[10].dispatcher probeQueries 0
scalar FogSequentialForward.fog[10].dispatcher probeAnswers 0
scalar FogSequentialForward.fog[10].dispatcher droppedJobsSLA 3547
scalar FogSequentialForward.fog[10].dispatcher jobs_class_1 3600255
scalar FogSequentialForward.fog[10].dispatcher remoteJobs_class_1 3596706
scalar FogSequentialForward.fog[10].dispatcher localJobs_class_1 2
scalar FogSequentialForward.fog[10].dispatcher droppedJobsSLA_class_1 3547
scalar FogSequentialForward.fog[10].server[0] rho 0.00031233901972882
scalar FogSequentialForward.fog[10].server[0] congestionRatio 0
scalar FogSequentialForward.fog[10].server[0] totalJobs 2
scalar FogSequentialForward.fog[10].server[0] droppedJobsQueue 0
scalar FogSequentialForward.fog[10].server[0] droppedJobsTimout 0
scalar FogSequentialForward.fog[10].server[0] droppedJobsSLA 0
scalar FogSequentialForward.fog[10].server[0] droppedJobsTotal 0
scalar FogSequentialForward.fog[11].dispatcher localJobs 2
scalar FogSequentialForward.fog[11].dispatcher internalJobs 3610
scalar FogSequentialForward.fog[11].dispatcher externalJobs 3596844
scalar FogSequentialForward.fog[11].dispatcher remoteJobs 3596837
scalar FogSequentialForward.fog[11].dispatcher probeQueries 0
scalar FogSequentialForward.fog[11].dispatcher probeAnswers 0
scalar FogSequentialForward.fog[11].dispatcher droppedJobsSLA 3615
scalar FogSequentialForward.fog[11].dispatcher jobs_class_1 3600454
scalar FogSequentialForward.fog[11].dispatcher remoteJobs_class_1 3596837
scalar FogSequentialForward.fog[11].dispatcher localJobs_class_1 2
scalar FogSequentialForward.fog[11].dispatcher droppedJobsSLA_class_1 3615
scalar FogSequentialForward.fog[11].server[0] rho 0.0003055460692849
scalar FogSequentialForward.fog[11].server[0] congestionRatio 0
scalar FogSequentialForward.fog[11].server[0] totalJobs 2
scalar FogSequentialForward.fog[11].server[0] droppedJobsQueue 0
scalar FogSequentialForward.fog[11].server[0] droppedJobsTimout 0
scalar FogSequentialForward.fog[11].server[0] droppedJobsSLA 0
scalar FogSequentialForward.fog[11].server[0] droppedJobsTotal 0
scalar FogSequentialForward.fog[12].dispatcher localJobs 1
scalar FogSequentialForward.fog[12].dispatcher internalJobs 3613
scalar FogSequentialForward.fog[12].dispatcher externalJobs 3598274
scalar FogSequentialForward.fog[12].dispatcher remoteJobs 3598324
scalar FogSequentialForward.fog[12].dispatcher probeQueries 0
scalar FogSequentialForward.fog[12].dispatcher probeAnswers 0
scalar FogSequentialForward.fog[12].dispatcher droppedJobsSLA 3562
scalar FogSequentialForward.fog[12].dispatcher jobs_class_1 3601887
scalar FogSequentialForward.fog[12].dispatcher remoteJobs_class_1 3598324
scalar FogSequentialForward.fog[12].dispatcher localJobs_class_1 1
scalar FogSequentialForward.fog[12].dispatcher droppedJobsSLA_class_1 3562
scalar FogSequentialForward.fog[12].server[0] rho 0.00015401020937134
scalar FogSequentialForward.fog[12].server[0] congestionRatio 0
scalar FogSequentialForward.fog[12].server[0] totalJobs 1
scalar FogSequentialForward.fog[12].server[0] droppedJobsQueue 0
scalar FogSequentialForward.fog[12].server[0] droppedJobsTimout 0
scalar FogSequentialForward.fog[12].server[0] droppedJobsSLA 0
scalar FogSequentialForward.fog[12].server[0] droppedJobsTotal 0
scalar FogSequentialForward.fog[13].dispatcher localJobs 3
scalar FogSequentialForward.fog[13].dispatcher internalJobs 3596
scalar FogSequentialForward.fog[13].dispatcher externalJobs 3600437
scalar FogSequentialForward.fog[13].dispatcher remoteJobs 3600540
scalar FogSequentialForward.fog[13].dispatcher probeQueries 0
scalar FogSequentialForward.fog[13].dispatcher probeAnswers 0
scalar FogSequentialForward.fog[13].dispatcher droppedJobsSLA 3490
scalar FogSequentialForward.fog[13].dispatcher jobs_class_1 3604033
scalar FogSequentialForward.fog[13].dispatcher remoteJobs_class_1 3600540
scalar FogSequentialForward.fog[13].dispatcher localJobs_class_1 3
scalar FogSequentialForward.fog[13].dispatcher droppedJobsSLA_class_1 3490
scalar FogSequentialForward.fog[13].server[0] rho 0.00045740875066258
scalar FogSequentialForward.fog[13].server[0] congestionRatio 0
scalar FogSequentialForward.fog[13].server[0] totalJobs 3
scalar FogSequentialForward.fog[13].server[0] droppedJobsQueue 0
scalar FogSequentialForward.fog[13].server[0] droppedJobsTimout 0
scalar FogSequentialForward.fog[13].server[0] droppedJobsSLA 0
scalar FogSequentialForward.fog[13].server[0] droppedJobsTotal 0
scalar FogSequentialForward.fog[14].dispatcher localJobs 1
scalar FogSequentialForward.fog[14].dispatcher internalJobs 3632
scalar FogSequentialForward.fog[14].dispatcher externalJobs 3598441
scalar FogSequentialForward.fog[14].dispatcher remoteJobs 3598542
scalar FogSequentialForward.fog[14].dispatcher probeQueries 0
scalar FogSequentialForward.fog[14].dispatcher probeAnswers 0
scalar FogSequentialForward.fog[14].dispatcher droppedJobsSLA 3530
scalar FogSequentialForward.fog[14].dispatcher jobs_class_1 3602073
scalar FogSequentialForward.fog[14].dispatcher remoteJobs_class_1 3598542
scalar FogSequentialForward.fog[14].dispatcher localJobs_class_1 1
scalar FogSequentialForward.fog[14].dispatcher droppedJobsSLA_class_1 3530
scalar FogSequentialForward.fog[14].server[0] rho 0.00016250848420896
scalar FogSequentialForward.fog[14].server[0] congestionRatio 0
scalar FogSequentialForward.fog[14].server[0] totalJobs 1
scalar FogSequentialForward.fog[14].server[0] droppedJobsQueue 0
scalar FogSequentialForward.fog[14].server[0] droppedJobsTimout 0
scalar FogSequentialForward.fog[14].server[0] droppedJobsSLA 0
scalar FogSequentialForward.fog[14].server[0] droppedJobsTotal 0
scalar FogSequentialForward.fog[15].dispatcher localJobs 1
scalar FogSequentialForward.fog[15].dispatcher internalJobs 3627
scalar FogSequentialForward.fog[15].dispatcher externalJobs 3598394
scalar FogSequentialForward.fog[15].dispatcher remoteJobs 3598476
scalar FogSequentialForward.fog[15].dispatcher probeQueries 0
scalar FogSequentialForward.fog[15].dispatcher probeAnswers 0
scalar FogSequentialForward.fog[15].dispatcher droppedJobsSLA 3544
scalar FogSequentialForward.fog[15].dispatcher jobs_class_1 3602021
scalar FogSequentialForward.fog[15].dispatcher remoteJobs_class_1 3598476
scalar FogSequentialForward.fog[15].dispatcher localJobs_class_1 1
scalar FogSequentialForward.fog[15].dispatcher droppedJobsSLA_class_1 3544
scalar FogSequentialForward.fog[15].server[0] rho 0.00015998752496671
scalar FogSequentialForward.fog[15].server[0] congestionRatio 0
scalar FogSequentialForward.fog[15].server[0] totalJobs 1
scalar FogSequentialForward.fog[15].server[0] droppedJobsQueue 0
scalar FogSequentialForward.fog[15].server[0] droppedJobsTimout 0
scalar FogSequentialForward.fog[15].server[0] droppedJobsSLA 0
scalar FogSequentialForward.fog[15].server[0] droppedJobsTotal 0
scalar FogSequentialForward.fog[16].dispatcher localJobs 2
scalar FogSequentialForward.fog[16].dispatcher internalJobs 3720
scalar FogSequentialForward.fog[16].dispatcher externalJobs 3597695
scalar FogSequentialForward.fog[16].dispatcher remoteJobs 3597832
scalar FogSequentialForward.fog[16].dispatcher probeQueries 0
scalar FogSequentialForward.fog[16].dispatcher probeAnswers 0
scalar FogSequentialForward.fog[16].dispatcher droppedJobsSLA 3581
scalar FogSequentialForward.fog[16].dispatcher jobs_class_1 3601415
scalar FogSequentialForward.fog[16].dispatcher remoteJobs_class_1 3597832
scalar FogSequentialForward.fog[16].dispatcher localJobs_class_1 2
scalar FogSequentialForward.fog[16].dispatcher droppedJobsSLA_class_1 3581
scalar FogSequentialForward.fog[16].server[0] rho 0.00030884082661942
scalar FogSequentialForward.fog[16].server[0] congestionRatio 0
scalar FogSequentialForward.fog[16].server[0] totalJobs 2
scalar FogSequentialForward.fog[16].server[0] droppedJobsQueue 0
scalar FogSequentialForward.fog[16].server[0] droppedJobsTimout 0
scalar FogSequentialForward.fog[16].server[0] droppedJobsSLA 0
scalar FogSequentialForward.fog[16].server[0] droppedJobsTotal 0
scalar FogSequentialForward.fog[17].dispatcher localJobs 3
scalar FogSequentialForward.fog[17].dispatcher internalJobs 3609
scalar FogSequentialForward.fog[17].dispatcher externalJobs 3596500
scalar FogSequentialForward.fog[17].dispatcher remoteJobs 3596505
scalar FogSequentialForward.fog[17].dispatcher probeQueries 0
scalar FogSequentialForward.fog[17].dispatcher probeAnswers 0
scalar FogSequentialForward.fog[17].dispatcher droppedJobsSLA 3601
scalar FogSequentialForward.fog[17].dispatcher jobs_class_1 3600109
scalar FogSequentialForward.fog[17].dispatcher remoteJobs_class_1 3596505
scalar FogSequentialForward.fog[17].dispatcher localJobs_class_1 3
scalar FogSequentialForward.fog[17].dispatcher droppedJobsSLA_class_1 3601
scalar FogSequentialForward.fog[17].server[0] rho 0.00046523363562301
scalar FogSequentialForward.fog[17].server[0] congestionRatio 0
scalar FogSequentialForward.fog[17].server[0] totalJobs 3
scalar FogSequentialForward.fog[17].server[0] droppedJobsQueue 0
scalar FogSequentialForward.fog[17].server[0] droppedJobsTimout 0
scalar FogSequentialForward.fog[17].server[0] droppedJobsSLA 0
scalar FogSequentialForward.fog[17].server[0] droppedJobsTotal 0
scalar FogSequentialForward.fog[18].dispatcher localJobs 1
scalar FogSequentialForward.fog[18].dispatcher internalJobs 3637
scalar FogSequentialForward.fog[18].dispatcher externalJobs 3595016
scalar FogSequentialForward.fog[18].dispatcher remoteJobs 3595017
scalar FogSequentialForward.fog[18].dispatcher probeQueries 0
scalar FogSequentialForward.fog[18].dispatcher probeAnswers 0
scalar FogSequentialForward.fog[18].dispatcher droppedJobsSLA 3635
scalar FogSequentialForward.fog[18].dispatcher jobs_class_1 3598653
scalar FogSequentialForward.fog[18].dispatcher remoteJobs_class_1 3595017
scalar FogSequentialForward.fog[18].dispatcher localJobs_class_1 1
scalar FogSequentialForward.fog[18].dispatcher droppedJobsSLA_class_1 3635
scalar FogSequentialForward.fog[18].server[0] rho 0.00015597486344632
scalar FogSequentialForward.fog[18].server[0] congestionRatio 0
scalar FogSequentialForward.fog[18].server[0] totalJobs 1
scalar FogSequentialForward.fog[18].server[0] droppedJobsQueue 0
scalar FogSequentialForward.fog[18].server[0] droppedJobsTimout 0
scalar FogSequentialForward.fog[18].server[0] droppedJobsSLA 0
scalar FogSequentialForward.fog[18].server[0] droppedJobsTotal 0
scalar FogSequentialForward.fog[19].dispatcher localJobs 1
scalar FogSequentialForward.fog[19].dispatcher internalJobs 3660
scalar FogSequentialForward.fog[19].dispatcher externalJobs 3595899
scalar FogSequentialForward.fog[19].dispatcher remoteJobs 3595980
scalar FogSequentialForward.fog[19].dispatcher probeQueries 0
scalar FogSequentialForward.fog[19].dispatcher probeAnswers 0
scalar FogSequentialForward.fog[19].dispatcher droppedJobsSLA 3578
scalar FogSequentialForward.fog[19].dispatcher jobs_class_1 3599559
scalar FogSequentialForward.fog[19].dispatcher remoteJobs_class_1 3595980
scalar FogSequentialForward.fog[19].dispatcher localJobs_class_1 1
scalar FogSequentialForward.fog[19].dispatcher droppedJobsSLA_class_1 3578
scalar FogSequentialForward.fog[19].server[0] rho 0.00014924274000805
scalar FogSequentialForward.fog[19].server[0] congestionRatio 0
scalar FogSequentialForward.fog[19].server[0] totalJobs 1
scalar FogSequentialForward.fog[19].server[0] droppedJobsQueue 0
scalar FogSequentialForward.fog[19].server[0] droppedJobsTimout 0
scalar FogSequentialForward.fog[19].server[0] droppedJobsSLA 0
scalar FogSequentialForward.fog[19].server[0] droppedJobsTotal 0
scalar FogSequentialForward.fog[20].dispatcher localJobs 1
scalar FogSequentialForward.fog[20].dispatcher internalJobs 3611
scalar FogSequentialForward.fog[20].dispatcher externalJobs 3601006
scalar FogSequentialForward.fog[20].dispatcher remoteJobs 3601071
scalar FogSequentialForward.fog[20].dispatcher probeQueries 0
scalar FogSequentialForward.fog[20].dispatcher probeAnswers 0
scalar FogSequentialForward.fog[20].dispatcher droppedJobsSLA 3545
scalar FogSequentialForward.fog[20].dispatcher jobs_class_1 3604617
scalar FogSequentialForward.fog[20].dispatcher remoteJobs_class_1 3601071
scalar FogSequentialForward.fog[20].dispatcher localJobs_class_1 1
scalar FogSequentialForward.fog[20].dispatcher droppedJobsSLA_class_1 3545
scalar FogSequentialForward.fog[20].server[0] rho 0.00015743110270705
scalar FogSequentialForward.fog[20].server[0] congestionRatio 0
scalar FogSequentialForward.fog[20].server[0] totalJobs 1
scalar FogSequentialForward.fog[20].server[0] droppedJobsQueue 0
scalar FogSequentialForward.fog[20].server[0] droppedJobsTimout 0
scalar FogSequentialForward.fog[20].server[0] droppedJobsSLA 0
scalar FogSequentialForward.fog[20].server[0] droppedJobsTotal 0
scalar FogSequentialForward.fog[21].dispatcher localJobs 3
scalar FogSequentialForward.fog[21].dispatcher internalJobs 3594
scalar FogSequentialForward.fog[21].dispatcher externalJobs 3597694
scalar FogSequentialForward.fog[21].dispatcher remoteJobs 3597664
scalar FogSequentialForward.fog[21].dispatcher probeQueries 0
scalar FogSequentialForward.fog[21].dispatcher probeAnswers 0
scalar FogSequentialForward.fog[21].dispatcher droppedJobsSLA 3621
scalar FogSequentialForward.fog[21].dispatcher jobs_class_1 3601288
scalar FogSequentialForward.fog[21].dispatcher remoteJobs_class_1 3597664
scalar FogSequentialForward.fog[21].dispatcher localJobs_class_1 3
scalar FogSequentialForward.fog[21].dispatcher droppedJobsSLA_class_1 3621
scalar FogSequentialForward.fog[21].server[0] rho 0.00045459921238944
scalar FogSequentialForward.fog[21].server[0] congestionRatio 0
scalar FogSequentialForward.fog[21].server[0] totalJobs 3
scalar FogSequentialForward.fog[21].server[0] droppedJobsQueue 0
scalar FogSequentialForward.fog[21].server[0] droppedJobsTimout 0
scalar FogSequentialForward.fog[21].server[0] droppedJobsSLA 0
scalar FogSequentialForward.fog[21].server[0] droppedJobsTotal 0
scalar FogSequentialForward.fog[22].dispatcher localJobs 3
scalar FogSequentialForward.fog[22].dispatcher internalJobs 3600
scalar FogSequentialForward.fog[22].dispatcher externalJobs 3595985
scalar FogSequentialForward.fog[22].dispatcher remoteJobs 3595966
scalar FogSequentialForward.fog[22].dispatcher probeQueries 0
scalar FogSequentialForward.fog[22].dispatcher probeAnswers 0
scalar FogSequentialForward.fog[22].dispatcher droppedJobsSLA 3616
scalar FogSequentialForward.fog[22].dispatcher jobs_class_1 3599585
scalar FogSequentialForward.fog[22].dispatcher remoteJobs_class_1 3595966
scalar FogSequentialForward.fog[22].dispatcher localJobs_class_1 3
scalar FogSequentialForward.fog[22].dispatcher droppedJobsSLA_class_1 3616
scalar FogSequentialForward.fog[22].server[0] rho 0.00046119562466629
scalar FogSequentialForward.fog[22].server[0] congestionRatio 0
scalar FogSequentialForward.fog[22].server[0] totalJobs 3
scalar FogSequentialForward.fog[22].server[0] droppedJobsQueue 0
scalar FogSequentialForward.fog[22].server[0] droppedJobsTimout 0
scalar FogSequentialForward.fog[22].server[0] droppedJobsSLA 0
scalar FogSequentialForward.fog[22].server[0] droppedJobsTotal 0
scalar FogSequentialForward.fog[23].dispatcher localJobs 2
scalar FogSequentialForward.fog[23].dispatcher internalJobs 3598
scalar FogSequentialForward.fog[23].dispatcher externalJobs 3599601
scalar FogSequentialForward.fog[23].dispatcher remoteJobs 3599600
scalar FogSequentialForward.fog[23].dispatcher probeQueries 0
scalar FogSequentialForward.fog[23].dispatcher probeAnswers 0
scalar FogSequentialForward.fog[23].dispatcher droppedJobsSLA 3597
scalar FogSequentialForward.fog[23].dispatcher jobs_class_1 3603199
scalar FogSequentialForward.fog[23].dispatcher remoteJobs_class_1 3599600
scalar FogSequentialForward.fog[23].dispatcher localJobs_class_1 2
scalar FogSequentialForward.fog[23].dispatcher droppedJobsSLA_class_1 3597
scalar FogSequentialForward.fog[23].server[0] rho 0.00030163672636263
scalar FogSequentialForward.fog[23].server[0] congestionRatio 0
scalar FogSequentialForward.fog[23].server[0] totalJobs 2
scalar FogSequentialForward.fog[23].server[0] droppedJobsQueue 0
scalar FogSequentialForward.fog[23].server[0] droppedJobsTimout 0
scalar FogSequentialForward.fog[23].server[0] droppedJobsSLA 0
scalar FogSequentialForward.fog[23].server[0] droppedJobsTotal 0
scalar FogSequentialForward.fog[24].dispatcher localJobs 1
scalar FogSequentialForward.fog[24].dispatcher internalJobs 3631
scalar FogSequentialForward.fog[24].dispatcher externalJobs 3597668
scalar FogSequentialForward.fog[24].dispatcher remoteJobs 3597699
scalar FogSequentialForward.fog[24].dispatcher probeQueries 0
scalar FogSequentialForward.fog[24].dispatcher probeAnswers 0
scalar FogSequentialForward.fog[24].dispatcher droppedJobsSLA 3599
scalar FogSequentialForward.fog[24].dispatcher jobs_class_1 3601299
scalar FogSequentialForward.fog[24].dispatcher remoteJobs_class_1 3597699
scalar FogSequentialForward.fog[24].dispatcher localJobs_class_1 1
scalar FogSequentialForward.fog[24].dispatcher droppedJobsSLA_class_1 3599
scalar FogSequentialForward.fog[24].server[0] rho 0.00015634328883607
scalar FogSequentialForward.fog[24].server[0] congestionRatio 0
scalar FogSequentialForward.fog[24].server[0] totalJobs 1
scalar FogSequentialForward.fog[24].server[0] droppedJobsQueue 0
scalar FogSequentialForward.fog[24].server[0] droppedJobsTimout 0
scalar FogSequentialForward.fog[24].server[0] droppedJobsSLA 0
scalar FogSequentialForward.fog[24].server[0] droppedJobsTotal 0
scalar FogSequentialForward.fog[25].dispatcher localJobs 3
scalar FogSequentialForward.fog[25].dispatcher internalJobs 3616
scalar FogSequentialForward.fog[25].dispatcher externalJobs 3595670
scalar FogSequentialForward.fog[25].dispatcher remoteJobs 3595658
scalar FogSequentialForward.fog[25].dispatcher probeQueries 0
scalar FogSequentialForward.fog[25].dispatcher probeAnswers 0
scalar FogSequentialForward.fog[25].dispatcher droppedJobsSLA 3625
scalar FogSequentialForward.fog[25].dispatcher jobs_class_1 3599286
scalar FogSequentialForward.fog[25].dispatcher remoteJobs_class_1 3595658
scalar FogSequentialForward.fog[25].dispatcher localJobs_class_1 3
scalar FogSequentialForward.fog[25].dispatcher droppedJobsSLA_class_1 3625
scalar FogSequentialForward.fog[25].server[0] rho 0.00045430782483891
scalar FogSequentialForward.fog[25].server[0] congestionRatio 0
scalar FogSequentialForward.fog[25].server[0] totalJobs 3
scalar FogSequentialForward.fog[25].server[0] droppedJobsQueue 0
scalar FogSequentialForward.fog[25].server[0] droppedJobsTimout 0
scalar FogSequentialForward.fog[25].server[0] droppedJobsSLA 0
scalar FogSequentialForward.fog[25].server[0] droppedJobsTotal 0
scalar FogSequentialForward.fog[26].dispatcher localJobs 2
scalar FogSequentialForward.fog[26].dispatcher internalJobs 3582
scalar FogSequentialForward.fog[26].dispatcher externalJobs 3598102
scalar FogSequentialForward.fog[26].dispatcher remoteJobs 3598136
scalar FogSequentialForward.fog[26].dispatcher probeQueries 0
scalar FogSequentialForward.fog[26].dispatcher probeAnswers 0
scalar FogSequentialForward.fog[26].dispatcher droppedJobsSLA 3546
scalar FogSequentialForward.fog[26].dispatcher jobs_class_1 3601684
scalar FogSequentialForward.fog[26].dispatcher remoteJobs_class_1 3598136
scalar FogSequentialForward.fog[26].dispatcher localJobs_class_1 2
scalar FogSequentialForward.fog[26].dispatcher droppedJobsSLA_class_1 3546
scalar FogSequentialForward.fog[26].server[0] rho 0.00031037969165482
scalar FogSequentialForward.fog[26].server[0] congestionRatio 0
scalar FogSequentialForward.fog[26].server[0] totalJobs 2
scalar FogSequentialForward.fog[26].server[0] droppedJobsQueue 0
scalar FogSequentialForward.fog[26].server[0] droppedJobsTimout 0
scalar FogSequentialForward.fog[26].server[0] droppedJobsSLA 0
scalar FogSequentialForward.fog[26].server[0] droppedJobsTotal 0
scalar FogSequentialForward.fog[27].dispatcher localJobs 2
scalar FogSequentialForward.fog[27].dispatcher internalJobs 3605
scalar FogSequentialForward.fog[27].dispatcher externalJobs 3598590
scalar FogSequentialForward.fog[27].dispatcher remoteJobs 3598605
scalar FogSequentialForward.fog[27].dispatcher probeQueries 0
scalar FogSequentialForward.fog[27].dispatcher probeAnswers 0
scalar FogSequentialForward.fog[27].dispatcher droppedJobsSLA 3588
scalar FogSequentialForward.fog[27].dispatcher jobs_class_1 3602195
scalar FogSequentialForward.fog[27].dispatcher remoteJobs_class_1 3598605
scalar FogSequentialForward.fog[27].dispatcher localJobs_class_1 2
scalar FogSequentialForward.fog[27].dispatcher droppedJobsSLA_class_1 3588
scalar FogSequentialForward.fog[27].server[0] rho 0.00030066625913605
scalar FogSequentialForward.fog[27].server[0] congestionRatio 0
scalar FogSequentialForward.fog[27].server[0] totalJobs 2
scalar FogSequentialForward.fog[27].server[0] droppedJobsQueue 0
scalar FogSequentialForward.fog[27].server[0] droppedJobsTimout 0
scalar FogSequentialForward.fog[27].server[0] droppedJobsSLA 0
scalar FogSequentialForward.fog[27].server[0] droppedJobsTotal 0
scalar FogSequentialForward.fog[28].dispatcher localJobs 2
scalar FogSequentialForward.fog[28].dispatcher internalJobs 3588
scalar FogSequentialForward.fog[28].dispatcher externalJobs 3597952
scalar FogSequentialForward.fog[28].dispatcher remoteJobs 3597950
scalar FogSequentialForward.fog[28].dispatcher probeQueries 0
scalar FogSequentialForward.fog[28].dispatcher probeAnswers 0
scalar FogSequentialForward.fog[28].dispatcher droppedJobsSLA 3588
scalar FogSequentialForward.fog[28].dispatcher jobs_class_1 3601540
scalar FogSequentialForward.fog[28].dispatcher remoteJobs_class_1 3597950
scalar FogSequentialForward.fog[28].dispatcher localJobs_class_1 2
scalar FogSequentialForward.fog[28].dispatcher droppedJobsSLA_class_1 3588
scalar FogSequentialForward.fog[28].server[0] rho 0.00030966405756772
scalar FogSequentialForward.fog[28].server[0] congestionRatio 0
scalar FogSequentialForward.fog[28].server[0] totalJobs 2
scalar FogSequentialForward.fog[28].server[0] droppedJobsQueue 0
scalar FogSequentialForward.fog[28].server[0] droppedJobsTimout 0
scalar FogSequentialForward.fog[28].server[0] droppedJobsSLA 0
scalar FogSequentialForward.fog[28].server[0] droppedJobsTotal 0
scalar FogSequentialForward.fog[29].dispatcher localJobs 2
scalar FogSequentialForward.fog[29].dispatcher internalJobs 3690
scalar FogSequentialForward.fog[29].dispatcher externalJobs 3592528
scalar FogSequentialForward.fog[29].dispatcher remoteJobs 3592655
scalar FogSequentialForward.fog[29].dispatcher probeQueries 0
scalar FogSequentialForward.fog[29].dispatcher probeAnswers 0
scalar FogSequentialForward.fog[29].dispatcher droppedJobsSLA 3561
scalar FogSequentialForward.fog[29].dispatcher jobs_class_1 3596218
scalar FogSequentialForward.fog[29].dispatcher remoteJobs_class_1 3592655
scalar FogSequentialForward.fog[29].dispatcher localJobs_class_1 2
scalar FogSequentialForward.fog[29].dispatcher droppedJobsSLA_class_1 3561
scalar FogSequentialForward.fog[29].server[0] rho 0.00030969857471064
scalar FogSequentialForward.fog[29].server[0] congestionRatio 0
scalar FogSequentialForward.fog[29].server[0] totalJobs 2
scalar FogSequentialForward.fog[29].server[0] droppedJobsQueue 0
scalar FogSequentialForward.fog[29].server[0] droppedJobsTimout 0
scalar FogSequentialForward.fog[29].server[0] droppedJobsSLA 0
scalar FogSequentialForward.fog[29].server[0] droppedJobsTotal 0
scalar FogSequentialForward.fog[30].dispatcher localJobs 1
scalar FogSequentialForward.fog[30].dispatcher internalJobs 3597
scalar FogSequentialForward.fog[30].dispatcher externalJobs 3596115
scalar FogSequentialForward.fog[30].dispatcher remoteJobs 3596090
scalar FogSequentialForward.fog[30].dispatcher probeQueries 0
scalar FogSequentialForward.fog[30].dispatcher probeAnswers 0
scalar FogSequentialForward.fog[30].dispatcher droppedJobsSLA 3621
scalar FogSequentialForward.fog[30].dispatcher jobs_class_1 3599712
scalar FogSequentialForward.fog[30].dispatcher remoteJobs_class_1 3596090
scalar FogSequentialForward.fog[30].dispatcher localJobs_class_1 1
scalar FogSequentialForward.fog[30].dispatcher droppedJobsSLA_class_1 3621
scalar FogSequentialForward.fog[30].server[0] rho 0.00015077117132023
scalar FogSequentialForward.fog[30].server[0] congestionRatio 0
scalar FogSequentialForward.fog[30].server[0] totalJobs 1
scalar FogSequentialForward.fog[30].server[0] droppedJobsQueue 0
scalar FogSequentialForward.fog[30].server[0] droppedJobsTimout 0
scalar FogSequentialForward.fog[30].server[0] droppedJobsSLA 0
scalar FogSequentialForward.fog[30].server[0] droppedJobsTotal 0
scalar FogSequentialForward.fog[31].dispatcher localJobs 3
scalar FogSequentialForward.fog[31].dispatcher internalJobs 3588
scalar FogSequentialForward.fog[31].dispatcher externalJobs 3600615
scalar FogSequentialForward.fog[31].dispatcher remoteJobs 3600563
scalar FogSequentialForward.fog[31].dispatcher probeQueries 0
scalar FogSequentialForward.fog[31].dispatcher probeAnswers 0
scalar FogSequentialForward.fog[31].dispatcher droppedJobsSLA 3637
scalar FogSequentialForward.fog[31].dispatcher jobs_class_1 3604203
scalar FogSequentialForward.fog[31].dispatcher remoteJobs_class_1 3600563
scalar FogSequentialForward.fog[31].dispatcher localJobs_class_1 3
scalar FogSequentialForward.fog[31].dispatcher droppedJobsSLA_class_1 3637
scalar FogSequentialForward.fog[31].server[0] rho 0.00046502094483003
scalar FogSequentialForward.fog[31].server[0] congestionRatio 0
scalar FogSequentialForward.fog[31].server[0] totalJobs 3
scalar FogSequentialForward.fog[31].server[0] droppedJobsQueue 0
scalar FogSequentialForward.fog[31].server[0] droppedJobsTimout 0
scalar FogSequentialForward.fog[31].server[0] droppedJobsSLA 0
scalar FogSequentialForward.fog[31].server[0] droppedJobsTotal 0
scalar FogSequentialForward.fog[32].dispatcher localJobs 1
scalar FogSequentialForward.fog[32].dispatcher internalJobs 3650
scalar FogSequentialForward.fog[32].dispatcher externalJobs 3596550
scalar FogSequentialForward.fog[32].dispatcher remoteJobs 3596608
scalar FogSequentialForward.fog[32].dispatcher probeQueries 0
scalar FogSequentialForward.fog[32].dispatcher probeAnswers 0
scalar FogSequentialForward.fog[32].dispatcher droppedJobsSLA 3591
scalar FogSequentialForward.fog[32].dispatcher jobs_class_1 3600200
scalar FogSequentialForward.fog[32].dispatcher remoteJobs_class_1 3596608
scalar FogSequentialForward.fog[32].dispatcher localJobs_class_1 1
scalar FogSequentialForward.fog[32].dispatcher droppedJobsSLA_class_1 3591
scalar FogSequentialForward.fog[32].server[0] rho 0.00015455210814252
scalar FogSequentialForward.fog[32].server[0] congestionRatio 0
scalar FogSequentialForward.fog[32].server[0] totalJobs 1
scalar FogSequentialForward.fog[32].server[0] droppedJobsQueue 0
scalar FogSequentialForward.fog[32].server[0] droppedJobsTimout 0
scalar FogSequentialForward.fog[32].server[0] droppedJobsSLA 0
scalar FogSequentialForward.fog[32].server[0] droppedJobsTotal 0
scalar FogSequentialForward.fog[33].dispatcher localJobs 1
scalar FogSequentialForward.fog[33].dispatcher internalJobs 3585
scalar FogSequentialForward.fog[33].dispatcher externalJobs 3597453
scalar FogSequentialForward.fog[33].dispatcher remoteJobs 3597513
scalar FogSequentialForward.fog[33].dispatcher probeQueries 0
scalar FogSequentialForward.fog[33].dispatcher probeAnswers 0
scalar FogSequentialForward.fog[33].dispatcher droppedJobsSLA 3524
scalar FogSequentialForward.fog[33].dispatcher jobs_class_1 3601038
scalar FogSequentialForward.fog[33].dispatcher remoteJobs_class_1 3597513
scalar FogSequentialForward.fog[33].dispatcher localJobs_class_1 1
scalar FogSequentialForward.fog[33].dispatcher droppedJobsSLA_class_1 3524
scalar FogSequentialForward.fog[33].server[0] rho 0.00015545249334536
scalar FogSequentialForward.fog[33].server[0] congestionRatio 0
scalar FogSequentialForward.fog[33].server[0] totalJobs 1
scalar FogSequentialForward.fog[33].server[0] droppedJobsQueue 0
scalar FogSequentialForward.fog[33].server[0] droppedJobsTimout 0
scalar FogSequentialForward.fog[33].server[0] droppedJobsSLA 0
scalar FogSequentialForward.fog[33].server[0] droppedJobsTotal 0
scalar FogSequentialForward.fog[34].dispatcher localJobs 1
scalar FogSequentialForward.fog[34].dispatcher internalJobs 3578
scalar FogSequentialForward.fog[34].dispatcher externalJobs 3595380
scalar FogSequentialForward.fog[34].dispatcher remoteJobs 3595366
scalar FogSequentialForward.fog[34].dispatcher probeQueries 0
scalar FogSequentialForward.fog[34].dispatcher probeAnswers 0
scalar FogSequentialForward.fog[34].dispatcher droppedJobsSLA 3591
scalar FogSequentialForward.fog[34].dispatcher jobs_class_1 3598958
scalar FogSequentialForward.fog[34].dispatcher remoteJobs_class_1 3595366
scalar FogSequentialForward.fog[34].dispatcher localJobs_class_1 1
scalar FogSequentialForward.fog[34].dispatcher droppedJobsSLA_class_1 3591
scalar FogSequentialForward.fog[34].server[0] rho 0.00015490487567149
scalar FogSequentialForward.fog[34].server[0] congestionRatio 0
scalar FogSequentialForward.fog[34].server[0] totalJobs 1
scalar FogSequentialForward.fog[34].server[0] droppedJobsQueue 0
scalar FogSequentialForward.fog[34].server[0] droppedJobsTimout 0
scalar FogSequentialForward.fog[34].server[0] droppedJobsSLA 0
scalar FogSequentialForward.fog[34].server[0] droppedJobsTotal 0
scalar FogSequentialForward.fog[35].dispatcher localJobs 2
scalar FogSequentialForward.fog[35].dispatcher internalJobs 3470
scalar FogSequentialForward.fog[35].dispatcher externalJobs 3595851
scalar FogSequentialForward.fog[35].dispatcher remoteJobs 3595729
scalar FogSequentialForward.fog[35].dispatcher probeQueries 0
scalar FogSequentialForward.fog[35].dispatcher probeAnswers 0
scalar FogSequentialForward.fog[35].dispatcher droppedJobsSLA 3590
scalar FogSequentialForward.fog[35].dispatcher jobs_class_1 3599321
scalar FogSequentialForward.fog[35].dispatcher remoteJobs_class_1 3595729
scalar FogSequentialForward.fog[35].dispatcher localJobs_class_1 2
scalar FogSequentialForward.fog[35].dispatcher droppedJobsSLA_class_1 3590
scalar FogSequentialForward.fog[35].server[0] rho 0.00030667174723931
scalar FogSequentialForward.fog[35].server[0] congestionRatio 0
scalar FogSequentialForward.fog[35].server[0] totalJobs 2
scalar FogSequentialForward.fog[35].server[0] droppedJobsQueue 0
scalar FogSequentialForward.fog[35].server[0] droppedJobsTimout 0
scalar FogSequentialForward.fog[35].server[0] droppedJobsSLA 0
scalar FogSequentialForward.fog[35].server[0] droppedJobsTotal 0
scalar FogSequentialForward.fog[36].dispatcher localJobs 4
scalar FogSequentialForward.fog[36].dispatcher internalJobs 3640
scalar FogSequentialForward.fog[36].dispatcher externalJobs 3597654
scalar FogSequentialForward.fog[36].dispatcher remoteJobs 3597672
scalar FogSequentialForward.fog[36].dispatcher probeQueries 0
scalar FogSequentialForward.fog[36].dispatcher probeAnswers 0
scalar FogSequentialForward.fog[36].dispatcher droppedJobsSLA 3618
scalar FogSequentialForward.fog[36].dispatcher jobs_class_1 3601294
scalar FogSequentialForward.fog[36].dispatcher remoteJobs_class_1 3597672
scalar FogSequentialForward.fog[36].dispatcher localJobs_class_1 4
scalar FogSequentialForward.fog[36].dispatcher droppedJobsSLA_class_1 3618
scalar FogSequentialForward.fog[36].server[0] rho 0.00062420137692243
scalar FogSequentialForward.fog[36].server[0] congestionRatio 0
scalar FogSequentialForward.fog[36].server[0] totalJobs 4
scalar FogSequentialForward.fog[36].server[0] droppedJobsQueue 0
scalar FogSequentialForward.fog[36].server[0] droppedJobsTimout 0
scalar FogSequentialForward.fog[36].server[0] droppedJobsSLA 0
scalar FogSequentialForward.fog[36].server[0] droppedJobsTotal 0
scalar FogSequentialForward.fog[37].dispatcher localJobs 1
scalar FogSequentialForward.fog[37].dispatcher internalJobs 3623
scalar FogSequentialForward.fog[37].dispatcher externalJobs 3600091
scalar FogSequentialForward.fog[37].dispatcher remoteJobs 3600103
scalar FogSequentialForward.fog[37].dispatcher probeQueries 0
scalar FogSequentialForward.fog[37].dispatcher probeAnswers 0
scalar FogSequentialForward.fog[37].dispatcher droppedJobsSLA 3610
scalar FogSequentialForward.fog[37].dispatcher jobs_class_1 3603714
scalar FogSequentialForward.fog[37].dispatcher remoteJobs_class_1 3600103
scalar FogSequentialForward.fog[37].dispatcher localJobs_class_1 1
scalar FogSequentialForward.fog[37].dispatcher droppedJobsSLA_class_1 3610
scalar FogSequentialForward.fog[37].server[0] rho 0.00015904809697531
scalar FogSequentialForward.fog[37].server[0] congestionRatio 0
scalar FogSequentialForward.fog[37].server[0] totalJobs 1
scalar FogSequentialForward.fog[37].server[0] droppedJobsQueue 0
scalar FogSequentialForward.fog[37].server[0] droppedJobsTimout 0
scalar FogSequentialForward.fog[37].server[0] droppedJobsSLA 0
scalar FogSequentialForward.fog[37].server[0] droppedJobsTotal 0
scalar FogSequentialForward.fog[38].dispatcher localJobs 1
scalar FogSequentialForward.fog[38].dispatcher internalJobs 3633
scalar FogSequentialForward.fog[38].dispatcher externalJobs 3595842
scalar FogSequentialForward.fog[38].dispatcher remoteJobs 3595881
scalar FogSequentialForward.fog[38].dispatcher probeQueries 0
scalar FogSequentialForward.fog[38].dispatcher probeAnswers 0
scalar FogSequentialForward.fog[38].dispatcher droppedJobsSLA 3593
scalar FogSequentialForward.fog[38].dispatcher jobs_class_1 3599475
scalar FogSequentialForward.fog[38].dispatcher remoteJobs_class_1 3595881
scalar FogSequentialForward.fog[38].dispatcher localJobs_class_1 1
scalar FogSequentialForward.fog[38].dispatcher droppedJobsSLA_class_1 3593
scalar FogSequentialForward.fog[38].server[0] rho 0.00015320822421927
scalar FogSequentialForward.fog[38].server[0] congestionRatio 0
scalar FogSequentialForward.fog[38].server[0] totalJobs 1
scalar FogSequentialForward.fog[38].server[0] droppedJobsQueue 0
scalar FogSequentialForward.fog[38].server[0] droppedJobsTimout 0
scalar FogSequentialForward.fog[38].server[0] droppedJobsSLA 0
scalar FogSequentialForward.fog[38].server[0] droppedJobsTotal 0
scalar FogSequentialForward.fog[39].dispatcher localJobs 1
scalar FogSequentialForward.fog[39].dispatcher internalJobs 3555
scalar FogSequentialForward.fog[39].dispatcher externalJobs 3597975
scalar FogSequentialForward.fog[39].dispatcher remoteJobs 3597983
scalar FogSequentialForward.fog[39].dispatcher probeQueries 0
scalar FogSequentialForward.fog[39].dispatcher probeAnswers 0
scalar FogSequentialForward.fog[39].dispatcher droppedJobsSLA 3546
scalar FogSequentialForward.fog[39].dispatcher jobs_class_1 3601530
scalar FogSequentialForward.fog[39].dispatcher remoteJobs_class_1 3597983
scalar FogSequentialForward.fog[39].dispatcher localJobs_class_1 1
scalar FogSequentialForward.fog[39].dispatcher droppedJobsSLA_class_1 3546
scalar FogSequentialForward.fog[39].server[0] rho 0.00014872576866765
scalar FogSequentialForward.fog[39].server[0] congestionRatio 0
scalar FogSequentialForward.fog[39].server[0] totalJobs 1
scalar FogSequentialForward.fog[39].server[0] droppedJobsQueue 0
scalar FogSequentialForward.fog[39].server[0] droppedJobsTimout 0
scalar FogSequentialForward.fog[39].server[0] droppedJobsSLA 0
scalar FogSequentialForward.fog[39].server[0] droppedJobsTotal 0
scalar FogSequentialForward.fog[40].dispatcher localJobs 2
scalar FogSequentialForward.fog[40].dispatcher internalJobs 3590
scalar FogSequentialForward.fog[40].dispatcher externalJobs 3599544
scalar FogSequentialForward.fog[40].dispatcher remoteJobs 3599529
scalar FogSequentialForward.fog[40].dispatcher probeQueries 0
scalar FogSequentialForward.fog[40].dispatcher probeAnswers 0
scalar FogSequentialForward.fog[40].dispatcher droppedJobsSLA 3603
scalar FogSequentialForward.fog[40].dispatcher jobs_class_1 3603134
scalar FogSequentialForward.fog[40].dispatcher remoteJobs_class_1 3599529
scalar FogSequentialForward.fog[40].dispatcher localJobs_class_1 2
scalar FogSequentialForward.fog[40].dispatcher droppedJobsSLA_class_1 3603
scalar FogSequentialForward.fog[40].server[0] rho 0.00030271202558652
scalar FogSequentialForward.fog[40].server[0] congestionRatio 0
scalar FogSequentialForward.fog[40].server[0] totalJobs 2
scalar FogSequentialForward.fog[40].server[0] droppedJobsQueue 0
scalar FogSequentialForward.fog[40].server[0] droppedJobsTimout 0
scalar FogSequentialForward.fog[40].server[0] droppedJobsSLA 0
scalar FogSequentialForward.fog[40].server[0] droppedJobsTotal 0
scalar FogSequentialForward.fog[41].dispatcher localJobs 2
scalar FogSequentialForward.fog[41].dispatcher internalJobs 3622
scalar FogSequentialForward.fog[41].dispatcher externalJobs 3597494
scalar FogSequentialForward.fog[41].dispatcher remoteJobs 3597487
scalar FogSequentialForward.fog[41].dispatcher probeQueries 0
scalar FogSequentialForward.fog[41].dispatcher probeAnswers 0
scalar FogSequentialForward.fog[41].dispatcher droppedJobsSLA 3627
scalar FogSequentialForward.fog[41].dispatcher jobs_class_1 3601116
scalar FogSequentialForward.fog[41].dispatcher remoteJobs_class_1 3597487
scalar FogSequentialForward.fog[41].dispatcher localJobs_class_1 2
scalar FogSequentialForward.fog[41].dispatcher droppedJobsSLA_class_1 3627
scalar FogSequentialForward.fog[41].server[0] rho 0.00029995638760738
scalar FogSequentialForward.fog[41].server[0] congestionRatio 0
scalar FogSequentialForward.fog[41].server[0] totalJobs 2
scalar FogSequentialForward.fog[41].server[0] droppedJobsQueue 0
scalar FogSequentialForward.fog[41].server[0] droppedJobsTimout 0
scalar FogSequentialForward.fog[41].server[0] droppedJobsSLA 0
scalar FogSequentialForward.fog[41].server[0] droppedJobsTotal 0
scalar FogSequentialForward.fog[42].dispatcher localJobs 1
scalar FogSequentialForward.fog[42].dispatcher internalJobs 3576
scalar FogSequentialForward.fog[42].dispatcher externalJobs 3597105
scalar FogSequentialForward.fog[42].dispatcher remoteJobs 3597120
scalar FogSequentialForward.fog[42].dispatcher probeQueries 0
scalar FogSequentialForward.fog[42].dispatcher probeAnswers 0
scalar FogSequentialForward.fog[42].dispatcher droppedJobsSLA 3560
scalar FogSequentialForward.fog[42].dispatcher jobs_class_1 3600681
scalar FogSequentialForward.fog[42].dispatcher remoteJobs_class_1 3597120
scalar FogSequentialForward.fog[42].dispatcher localJobs_class_1 1
scalar FogSequentialForward.fog[42].dispatcher droppedJobsSLA_class_1 3560
scalar FogSequentialForward.fog[42].server[0] rho 0.00015710975276306
scalar FogSequentialForward.fog[42].server[0] congestionRatio 0
scalar FogSequentialForward.fog[42].server[0] totalJobs 1
scalar FogSequentialForward.fog[42].server[0] droppedJobsQueue 0
scalar FogSequentialForward.fog[42].server[0] droppedJobsTimout 0
scalar FogSequentialForward.fog[42].server[0] droppedJobsSLA 0
scalar FogSequentialForward.fog[42].server[0] droppedJobsTotal 0
scalar FogSequentialForward.fog[43].dispatcher localJobs 1
scalar FogSequentialForward.fog[43].dispatcher internalJobs 3609
scalar FogSequentialForward.fog[43].dispatcher externalJobs 3596136
scalar FogSequentialForward.fog[43].dispatcher remoteJobs 3596169
scalar FogSequentialForward.fog[43].dispatcher probeQueries 0
scalar FogSequentialForward.fog[43].dispatcher probeAnswers 0
scalar FogSequentialForward.fog[43].dispatcher droppedJobsSLA 3575
scalar FogSequentialForward.fog[43].dispatcher jobs_class_1 3599745
scalar FogSequentialForward.fog[43].dispatcher remoteJobs_class_1 3596169
scalar FogSequentialForward.fog[43].dispatcher localJobs_class_1 1
scalar FogSequentialForward.fog[43].dispatcher droppedJobsSLA_class_1 3575
scalar FogSequentialForward.fog[43].server[0] rho 0.00015811130288057
scalar FogSequentialForward.fog[43].server[0] congestionRatio 0
scalar FogSequentialForward.fog[43].server[0] totalJobs 1
scalar FogSequentialForward.fog[43].server[0] droppedJobsQueue 0
scalar FogSequentialForward.fog[43].server[0] droppedJobsTimout 0
scalar FogSequentialForward.fog[43].server[0] droppedJobsSLA 0
scalar FogSequentialForward.fog[43].server[0] droppedJobsTotal 0
scalar FogSequentialForward.fog[44].dispatcher localJobs 2
scalar FogSequentialForward.fog[44].dispatcher internalJobs 3565
scalar FogSequentialForward.fog[44].dispatcher externalJobs 3595147
scalar FogSequentialForward.fog[44].dispatcher remoteJobs 3595121
scalar FogSequentialForward.fog[44].dispatcher probeQueries 0
scalar FogSequentialForward.fog[44].dispatcher probeAnswers 0
scalar FogSequentialForward.fog[44].dispatcher droppedJobsSLA 3589
scalar FogSequentialForward.fog[44].dispatcher jobs_class_1 3598712
scalar FogSequentialForward.fog[44].dispatcher remoteJobs_class_1 3595121
scalar FogSequentialForward.fog[44].dispatcher localJobs_class_1 2
scalar FogSequentialForward.fog[44].dispatcher droppedJobsSLA_class_1 3589
scalar FogSequentialForward.fog[44].server[0] rho 0.00030093677924015
scalar FogSequentialForward.fog[44].server[0] congestionRatio 0
scalar FogSequentialForward.fog[44].server[0] totalJobs 2
scalar FogSequentialForward.fog[44].server[0] droppedJobsQueue 0
scalar FogSequentialForward.fog[44].server[0] droppedJobsTimout 0
scalar FogSequentialForward.fog[44].server[0] droppedJobsSLA 0
scalar FogSequentialForward.fog[44].server[0] droppedJobsTotal 0
scalar FogSequentialForward.fog[45].dispatcher localJobs 3
scalar FogSequentialForward.fog[45].dispatcher internalJobs 3660
scalar FogSequentialForward.fog[45].dispatcher externalJobs 3594064
scalar FogSequentialForward.fog[45].dispatcher remoteJobs 3594088
scalar FogSequentialForward.fog[45].dispatcher probeQueries 0
scalar FogSequentialForward.fog[45].dispatcher probeAnswers 0
scalar FogSequentialForward.fog[45].dispatcher droppedJobsSLA 3633
scalar FogSequentialForward.fog[45].dispatcher jobs_class_1 3597724
scalar FogSequentialForward.fog[45].dispatcher remoteJobs_class_1 3594088
scalar FogSequentialForward.fog[45].dispatcher localJobs_class_1 3
scalar FogSequentialForward.fog[45].dispatcher droppedJobsSLA_class_1 3633
scalar FogSequentialForward.fog[45].server[0] rho 0.00047076205373742
scalar FogSequentialForward.fog[45].server[0] congestionRatio 0
scalar FogSequentialForward.fog[45].server[0] totalJobs 3
scalar FogSequentialForward.fog[45].server[0] droppedJobsQueue 0
scalar FogSequentialForward.fog[45].server[0] droppedJobsTimout 0
scalar FogSequentialForward.fog[45].server[0] droppedJobsSLA 0
scalar FogSequentialForward.fog[45].server[0] droppedJobsTotal 0
scalar FogSequentialForward.fog[46].dispatcher localJobs 1
scalar FogSequentialForward.fog[46].dispatcher internalJobs 3560
scalar FogSequentialForward.fog[46].dispatcher externalJobs 3598889
scalar FogSequentialForward.fog[46].dispatcher remoteJobs 3598872
scalar FogSequentialForward.fog[46].dispatcher probeQueries 0
scalar FogSequentialForward.fog[46].dispatcher probeAnswers 0
scalar FogSequentialForward.fog[46].dispatcher droppedJobsSLA 3576
scalar FogSequentialForward.fog[46].dispatcher jobs_class_1 3602449
scalar FogSequentialForward.fog[46].dispatcher remoteJobs_class_1 3598872
scalar FogSequentialForward.fog[46].dispatcher localJobs_class_1 1
scalar FogSequentialForward.fog[46].dispatcher droppedJobsSLA_class_1 3576
scalar FogSequentialForward.fog[46].server[0] rho 0.00015669700223953
scalar FogSequentialForward.fog[46].server[0] congestionRatio 0
scalar FogSequentialForward.fog[46].server[0] totalJobs 1
scalar FogSequentialForward.fog[46].server[0] droppedJobsQueue 0
scalar FogSequentialForward.fog[46].server[0] droppedJobsTimout 0
scalar FogSequentialForward.fog[46].server[0] droppedJobsSLA 0
scalar FogSequentialForward.fog[46].server[0] droppedJobsTotal 0
scalar FogSequentialForward.fog[47].dispatcher localJobs 1
scalar FogSequentialForward.fog[47].dispatcher internalJobs 3532
scalar FogSequentialForward.fog[47].dispatcher externalJobs 3593027
scalar FogSequentialForward.fog[47].dispatcher remoteJobs 3592953
scalar FogSequentialForward.fog[47].dispatcher probeQueries 0
scalar FogSequentialForward.fog[47].dispatcher probeAnswers 0
scalar FogSequentialForward.fog[47].dispatcher droppedJobsSLA 3605
scalar FogSequentialForward.fog[47].dispatcher jobs_class_1 3596559
scalar FogSequentialForward.fog[47].dispatcher remoteJobs_class_1 3592953
scalar FogSequentialForward.fog[47].dispatcher localJobs_class_1 1
scalar FogSequentialForward.fog[47].dispatcher droppedJobsSLA_class_1 3605
scalar FogSequentialForward.fog[47].server[0] rho 0.00015647083637305
scalar FogSequentialForward.fog[47].server[0] congestionRatio 0
scalar FogSequentialForward.fog[47].server[0] totalJobs 1
scalar FogSequentialForward.fog[47].server[0] droppedJobsQueue 0
scalar FogSequentialForward.fog[47].server[0] droppedJobsTimout 0
scalar FogSequentialForward.fog[47].server[0] droppedJobsSLA 0
scalar FogSequentialForward.fog[47].server[0] droppedJobsTotal 0
scalar FogSequentialForward.fog[48].dispatcher localJobs 1
scalar FogSequentialForward.fog[48].dispatcher internalJobs 3652
scalar FogSequentialForward.fog[48].dispatcher externalJobs 3600627
scalar FogSequentialForward.fog[48].dispatcher remoteJobs 3600755
scalar FogSequentialForward.fog[48].dispatcher probeQueries 0
scalar FogSequentialForward.fog[48].dispatcher probeAnswers 0
scalar FogSequentialForward.fog[48].dispatcher droppedJobsSLA 3523
scalar FogSequentialForward.fog[48].dispatcher jobs_class_1 3604279
scalar FogSequentialForward.fog[48].dispatcher remoteJobs_class_1 3600755
scalar FogSequentialForward.fog[48].dispatcher localJobs_class_1 1
scalar FogSequentialForward.fog[48].dispatcher droppedJobsSLA_class_1 3523
scalar FogSequentialForward.fog[48].server[0] rho 0.00015786691801623
scalar FogSequentialForward.fog[48].server[0] congestionRatio 0
scalar FogSequentialForward.fog[48].server[0] totalJobs 1
scalar FogSequentialForward.fog[48].server[0] droppedJobsQueue 0
scalar FogSequentialForward.fog[48].server[0] droppedJobsTimout 0
scalar FogSequentialForward.fog[48].server[0] droppedJobsSLA 0
scalar FogSequentialForward.fog[48].server[0] droppedJobsTotal 0
scalar FogSequentialForward.fog[49].dispatcher localJobs 1
scalar FogSequentialForward.fog[49].dispatcher internalJobs 3623
scalar FogSequentialForward.fog[49].dispatcher externalJobs 3596967
scalar FogSequentialForward.fog[49].dispatcher remoteJobs 3597032
scalar FogSequentialForward.fog[49].dispatcher probeQueries 0
scalar FogSequentialForward.fog[49].dispatcher probeAnswers 0
scalar FogSequentialForward.fog[49].dispatcher droppedJobsSLA 3557
scalar FogSequentialForward.fog[49].dispatcher jobs_class_1 3600590
scalar FogSequentialForward.fog[49].dispatcher remoteJobs_class_1 3597032
scalar FogSequentialForward.fog[49].dispatcher localJobs_class_1 1
scalar FogSequentialForward.fog[49].dispatcher droppedJobsSLA_class_1 3557
scalar FogSequentialForward.fog[49].server[0] rho 0.00015574431745335
scalar FogSequentialForward.fog[49].server[0] congestionRatio 0
scalar FogSequentialForward.fog[49].server[0] totalJobs 1
scalar FogSequentialForward.fog[49].server[0] droppedJobsQueue 0
scalar FogSequentialForward.fog[49].server[0] droppedJobsTimout 0
scalar FogSequentialForward.fog[49].server[0] droppedJobsSLA 0
scalar FogSequentialForward.fog[49].server[0] droppedJobsTotal 0
scalar FogSequentialForward.fog[50].dispatcher localJobs 2
scalar FogSequentialForward.fog[50].dispatcher internalJobs 3595
scalar FogSequentialForward.fog[50].dispatcher externalJobs 3600226
scalar FogSequentialForward.fog[50].dispatcher remoteJobs 3600187
scalar FogSequentialForward.fog[50].dispatcher probeQueries 0
scalar FogSequentialForward.fog[50].dispatcher probeAnswers 0
scalar FogSequentialForward.fog[50].dispatcher droppedJobsSLA 3632
scalar FogSequentialForward.fog[50].dispatcher jobs_class_1 3603821
scalar FogSequentialForward.fog[50].dispatcher remoteJobs_class_1 3600187
scalar FogSequentialForward.fog[50].dispatcher localJobs_class_1 2
scalar FogSequentialForward.fog[50].dispatcher droppedJobsSLA_class_1 3632
scalar FogSequentialForward.fog[50].server[0] rho 0.00030488861375488
scalar FogSequentialForward.fog[50].server[0] congestionRatio 0
scalar FogSequentialForward.fog[50].server[0] totalJobs 2
scalar FogSequentialForward.fog[50].server[0] droppedJobsQueue 0
scalar FogSequentialForward.fog[50].server[0] droppedJobsTimout 0
scalar FogSequentialForward.fog[50].server[0] droppedJobsSLA 0
scalar FogSequentialForward.fog[50].server[0] droppedJobsTotal 0
scalar FogSequentialForward.fog[51].dispatcher localJobs 1
scalar FogSequentialForward.fog[51].dispatcher internalJobs 3704
scalar FogSequentialForward.fog[51].dispatcher externalJobs 3597616
scalar FogSequentialForward.fog[51].dispatcher remoteJobs 3597633
scalar FogSequentialForward.fog[51].dispatcher probeQueries 0
scalar FogSequentialForward.fog[51].dispatcher probeAnswers 0
scalar FogSequentialForward.fog[51].dispatcher droppedJobsSLA 3686
scalar FogSequentialForward.fog[51].dispatcher jobs_class_1 3601320
scalar FogSequentialForward.fog[51].dispatcher remoteJobs_class_1 3597633
scalar FogSequentialForward.fog[51].dispatcher localJobs_class_1 1
scalar FogSequentialForward.fog[51].dispatcher droppedJobsSLA_class_1 3686
scalar FogSequentialForward.fog[51].server[0] rho 0.00015127407095861
scalar FogSequentialForward.fog[51].server[0] congestionRatio 0
scalar FogSequentialForward.fog[51].server[0] totalJobs 1
scalar FogSequentialForward.fog[51].server[0] droppedJobsQueue 0
scalar FogSequentialForward.fog[51].server[0] droppedJobsTimout 0
scalar FogSequentialForward.fog[51].server[0] droppedJobsSLA 0
scalar FogSequentialForward.fog[51].server[0] droppedJobsTotal 0
scalar FogSequentialForward.fog[52].dispatcher localJobs 1
scalar FogSequentialForward.fog[52].dispatcher internalJobs 3683
scalar FogSequentialForward.fog[52].dispatcher externalJobs 3595568
scalar FogSequentialForward.fog[52].dispatcher remoteJobs 3595608
scalar FogSequentialForward.fog[52].dispatcher probeQueries 0
scalar FogSequentialForward.fog[52].dispatcher probeAnswers 0
scalar FogSequentialForward.fog[52].dispatcher droppedJobsSLA 3642
scalar FogSequentialForward.fog[52].dispatcher jobs_class_1 3599251
scalar FogSequentialForward.fog[52].dispatcher remoteJobs_class_1 3595608
scalar FogSequentialForward.fog[52].dispatcher localJobs_class_1 1
scalar FogSequentialForward.fog[52].dispatcher droppedJobsSLA_class_1 3642
scalar FogSequentialForward.fog[52].server[0] rho 0.00015250741853379
scalar FogSequentialForward.fog[52].server[0] congestionRatio 0
scalar FogSequentialForward.fog[52].server[0] totalJobs 1
scalar FogSequentialForward.fog[52].server[0] droppedJobsQueue 0
scalar FogSequentialForward.fog[52].server[0] droppedJobsTimout 0
scalar FogSequentialForward.fog[52].server[0] droppedJobsSLA 0
scalar FogSequentialForward.fog[52].server[0] droppedJobsTotal 0
scalar FogSequentialForward.fog[53].dispatcher localJobs 1
scalar FogSequentialForward.fog[53].dispatcher internalJobs 3529
scalar FogSequentialForward.fog[53].dispatcher externalJobs 3595929
scalar FogSequentialForward.fog[53].dispatcher remoteJobs 3595813
scalar FogSequentialForward.fog[53].dispatcher probeQueries 0
scalar FogSequentialForward.fog[53].dispatcher probeAnswers 0
scalar FogSequentialForward.fog[53].dispatcher droppedJobsSLA 3644
scalar FogSequentialForward.fog[53].dispatcher jobs_class_1 3599458
scalar FogSequentialForward.fog[53].dispatcher remoteJobs_class_1 3595813
scalar FogSequentialForward.fog[53].dispatcher localJobs_class_1 1
scalar FogSequentialForward.fog[53].dispatcher droppedJobsSLA_class_1 3644
scalar FogSequentialForward.fog[53].server[0] rho 0.00015529438678641
scalar FogSequentialForward.fog[53].server[0] congestionRatio 0
scalar FogSequentialForward.fog[53].server[0] totalJobs 1
scalar FogSequentialForward.fog[53].server[0] droppedJobsQueue 0
scalar FogSequentialForward.fog[53].server[0] droppedJobsTimout 0
scalar FogSequentialForward.fog[53].server[0] droppedJobsSLA 0
scalar FogSequentialForward.fog[53].server[0] droppedJobsTotal 0
scalar FogSequentialForward.fog[54].dispatcher localJobs 1
scalar FogSequentialForward.fog[54].dispatcher internalJobs 3573
scalar FogSequentialForward.fog[54].dispatcher externalJobs 3597671
scalar FogSequentialForward.fog[54].dispatcher remoteJobs 3597665
scalar FogSequentialForward.fog[54].dispatcher probeQueries 0
scalar FogSequentialForward.fog[54].dispatcher probeAnswers 0
scalar FogSequentialForward.fog[54].dispatcher droppedJobsSLA 3578
scalar FogSequentialForward.fog[54].dispatcher jobs_class_1 3601244
scalar FogSequentialForward.fog[54].dispatcher remoteJobs_class_1 3597665
scalar FogSequentialForward.fog[54].dispatcher localJobs_class_1 1
scalar FogSequentialForward.fog[54].dispatcher droppedJobsSLA_class_1 3578
scalar FogSequentialForward.fog[54].server[0] rho 0.00015406591410283
scalar FogSequentialForward.fog[54].server[0] congestionRatio 0
scalar FogSequentialForward.fog[54].server[0] totalJobs 1
scalar FogSequentialForward.fog[54].server[0] droppedJobsQueue 0
scalar FogSequentialForward.fog[54].server[0] droppedJobsTimout 0
scalar FogSequentialForward.fog[54].server[0] droppedJobsSLA 0
scalar FogSequentialForward.fog[54].server[0] droppedJobsTotal 0
scalar FogSequentialForward.fog[55].dispatcher localJobs 1
scalar FogSequentialForward.fog[55].dispatcher internalJobs 3634
scalar FogSequentialForward.fog[55].dispatcher externalJobs 3594537
scalar FogSequentialForward.fog[55].dispatcher remoteJobs 3594525
scalar FogSequentialForward.fog[55].dispatcher probeQueries 0
scalar FogSequentialForward.fog[55].dispatcher probeAnswers 0
scalar FogSequentialForward.fog[55].dispatcher droppedJobsSLA 3645
scalar FogSequentialForward.fog[55].dispatcher jobs_class_1 3598171
scalar FogSequentialForward.fog[55].dispatcher remoteJobs_class_1 3594525
scalar FogSequentialForward.fog[55].dispatcher localJobs_class_1 1
scalar FogSequentialForward.fog[55].dispatcher droppedJobsSLA_class_1 3645
scalar FogSequentialForward.fog[55].server[0] rho 0.00014834823377896
scalar FogSequentialForward.fog[55].server[0] congestionRatio 0
scalar FogSequentialForward.fog[55].server[0] totalJobs 1
scalar FogSequentialForward.fog[55].server[0] droppedJobsQueue 0
scalar FogSequentialForward.fog[55].server[0] droppedJobsTimout 0
scalar FogSequentialForward.fog[55].server[0] droppedJobsSLA 0
scalar FogSequentialForward.fog[55].server[0] droppedJobsTotal 0
scalar FogSequentialForward.fog[56].dispatcher localJobs 1
scalar FogSequentialForward.fog[56].dispatcher internalJobs 3606
scalar FogSequentialForward.fog[56].dispatcher externalJobs 3596560
scalar FogSequentialForward.fog[56].dispatcher remoteJobs 3596602
scalar FogSequentialForward.fog[56].dispatcher probeQueries 0
scalar FogSequentialForward.fog[56].dispatcher probeAnswers 0
scalar FogSequentialForward.fog[56].dispatcher droppedJobsSLA 3563
scalar FogSequentialForward.fog[56].dispatcher jobs_class_1 3600166
scalar FogSequentialForward.fog[56].dispatcher remoteJobs_class_1 3596602
scalar FogSequentialForward.fog[56].dispatcher localJobs_class_1 1
scalar FogSequentialForward.fog[56].dispatcher droppedJobsSLA_class_1 3563
scalar FogSequentialForward.fog[56].server[0] rho 0.00015762199473102
scalar FogSequentialForward.fog[56].server[0] congestionRatio 0
scalar FogSequentialForward.fog[56].server[0] totalJobs 1
scalar FogSequentialForward.fog[56].server[0] droppedJobsQueue 0
scalar FogSequentialForward.fog[56].server[0] droppedJobsTimout 0
scalar FogSequentialForward.fog[56].server[0] droppedJobsSLA 0
scalar FogSequentialForward.fog[56].server[0] droppedJobsTotal 0
scalar FogSequentialForward.fog[57].dispatcher localJobs 1
scalar FogSequentialForward.fog[57].dispatcher internalJobs 3493
scalar FogSequentialForward.fog[57].dispatcher externalJobs 3592919
scalar FogSequentialForward.fog[57].dispatcher remoteJobs 3592796
scalar FogSequentialForward.fog[57].dispatcher probeQueries 0
scalar FogSequentialForward.fog[57].dispatcher probeAnswers 0
scalar FogSequentialForward.fog[57].dispatcher droppedJobsSLA 3615
scalar FogSequentialForward.fog[57].dispatcher jobs_class_1 3596412
scalar FogSequentialForward.fog[57].dispatcher remoteJobs_class_1 3592796
scalar FogSequentialForward.fog[57].dispatcher localJobs_class_1 1
scalar FogSequentialForward.fog[57].dispatcher droppedJobsSLA_class_1 3615
scalar FogSequentialForward.fog[57].server[0] rho 0.00014836133050267
scalar FogSequentialForward.fog[57].server[0] congestionRatio 0
scalar FogSequentialForward.fog[57].server[0] totalJobs 1
scalar FogSequentialForward.fog[57].server[0] droppedJobsQueue 0
scalar FogSequentialForward.fog[57].server[0] droppedJobsTimout 0
scalar FogSequentialForward.fog[57].server[0] droppedJobsSLA 0
scalar FogSequentialForward.fog[57].server[0] droppedJobsTotal 0
scalar FogSequentialForward.fog[58].dispatcher localJobs 1
scalar FogSequentialForward.fog[58].dispatcher internalJobs 3497
scalar FogSequentialForward.fog[58].dispatcher externalJobs 3597651
scalar FogSequentialForward.fog[58].dispatcher remoteJobs 3597611
scalar FogSequentialForward.fog[58].dispatcher probeQueries 0
scalar FogSequentialForward.fog[58].dispatcher probeAnswers 0
scalar FogSequentialForward.fog[58].dispatcher droppedJobsSLA 3536
scalar FogSequentialForward.fog[58].dispatcher jobs_class_1 3601148
scalar FogSequentialForward.fog[58].dispatcher remoteJobs_class_1 3597611
scalar FogSequentialForward.fog[58].dispatcher localJobs_class_1 1
scalar FogSequentialForward.fog[58].dispatcher droppedJobsSLA_class_1 3536
scalar FogSequentialForward.fog[58].server[0] rho 0.0001523801474832
scalar FogSequentialForward.fog[58].server[0] congestionRatio 0
scalar FogSequentialForward.fog[58].server[0] totalJobs 1
scalar FogSequentialForward.fog[58].server[0] droppedJobsQueue 0
scalar FogSequentialForward.fog[58].server[0] droppedJobsTimout 0
scalar FogSequentialForward.fog[58].server[0] droppedJobsSLA 0
scalar FogSequentialForward.fog[58].server[0] droppedJobsTotal 0
scalar FogSequentialForward.fog[59].dispatcher localJobs 1
scalar FogSequentialForward.fog[59].dispatcher internalJobs 3647
scalar FogSequentialForward.fog[59].dispatcher externalJobs 3596294
scalar FogSequentialForward.fog[59].dispatcher remoteJobs 3596339
scalar FogSequentialForward.fog[59].dispatcher probeQueries 0
scalar FogSequentialForward.fog[59].dispatcher probeAnswers 0
scalar FogSequentialForward.fog[59].dispatcher droppedJobsSLA 3601
scalar FogSequentialForward.fog[59].dispatcher jobs_class_1 3599941
scalar FogSequentialForward.fog[59].dispatcher remoteJobs_class_1 3596339
scalar FogSequentialForward.fog[59].dispatcher localJobs_class_1 1
scalar FogSequentialForward.fog[59].dispatcher droppedJobsSLA_class_1 3601
scalar FogSequentialForward.fog[59].server[0] rho 0.00015895928663667
scalar FogSequentialForward.fog[59].server[0] congestionRatio 0
scalar FogSequentialForward.fog[59].server[0] totalJobs 1
scalar FogSequentialForward.fog[59].server[0] droppedJobsQueue 0
scalar FogSequentialForward.fog[59].server[0] droppedJobsTimout 0
scalar FogSequentialForward.fog[59].server[0] droppedJobsSLA 0
scalar FogSequentialForward.fog[59].server[0] droppedJobsTotal 0
scalar FogSequentialForward.fog[60].dispatcher localJobs 3
scalar FogSequentialForward.fog[60].dispatcher internalJobs 3481
scalar FogSequentialForward.fog[60].dispatcher externalJobs 3597111
scalar FogSequentialForward.fog[60].dispatcher remoteJobs 3596863
scalar FogSequentialForward.fog[60].dispatcher probeQueries 0
scalar FogSequentialForward.fog[60].dispatcher probeAnswers 0
scalar FogSequentialForward.fog[60].dispatcher droppedJobsSLA 3726
scalar FogSequentialForward.fog[60].dispatcher jobs_class_1 3600592
scalar FogSequentialForward.fog[60].dispatcher remoteJobs_class_1 3596863
scalar FogSequentialForward.fog[60].dispatcher localJobs_class_1 3
scalar FogSequentialForward.fog[60].dispatcher droppedJobsSLA_class_1 3726
scalar FogSequentialForward.fog[60].server[0] rho 0.00046453505638056
scalar FogSequentialForward.fog[60].server[0] congestionRatio 0
scalar FogSequentialForward.fog[60].server[0] totalJobs 3
scalar FogSequentialForward.fog[60].server[0] droppedJobsQueue 0
scalar FogSequentialForward.fog[60].server[0] droppedJobsTimout 0
scalar FogSequentialForward.fog[60].server[0] droppedJobsSLA 0
scalar FogSequentialForward.fog[60].server[0] droppedJobsTotal 0
scalar FogSequentialForward.fog[61].dispatcher localJobs 1
scalar FogSequentialForward.fog[61].dispatcher internalJobs 3559
scalar FogSequentialForward.fog[61].dispatcher externalJobs 3595598
scalar FogSequentialForward.fog[61].dispatcher remoteJobs 3595545
scalar FogSequentialForward.fog[61].dispatcher probeQueries 0
scalar FogSequentialForward.fog[61].dispatcher probeAnswers 0
scalar FogSequentialForward.fog[61].dispatcher droppedJobsSLA 3611
scalar FogSequentialForward.fog[61].dispatcher jobs_class_1 3599157
scalar FogSequentialForward.fog[61].dispatcher remoteJobs_class_1 3595545
scalar FogSequentialForward.fog[61].dispatcher localJobs_class_1 1
scalar FogSequentialForward.fog[61].dispatcher droppedJobsSLA_class_1 3611
scalar FogSequentialForward.fog[61].server[0] rho 0.00015211131540127
scalar FogSequentialForward.fog[61].server[0] congestionRatio 0
scalar FogSequentialForward.fog[61].server[0] totalJobs 1
scalar FogSequentialForward.fog[61].server[0] droppedJobsQueue 0
scalar FogSequentialForward.fog[61].server[0] droppedJobsTimout 0
scalar FogSequentialForward.fog[61].server[0] droppedJobsSLA 0
scalar FogSequentialForward.fog[61].server[0] droppedJobsTotal 0
scalar FogSequentialForward.fog[62].dispatcher localJobs 3
scalar FogSequentialForward.fog[62].dispatcher internalJobs 3585
scalar FogSequentialForward.fog[62].dispatcher externalJobs 3595434
scalar FogSequentialForward.fog[62].dispatcher remoteJobs 3595298
scalar FogSequentialForward.fog[62].dispatcher probeQueries 0
scalar FogSequentialForward.fog[62].dispatcher probeAnswers 0
scalar FogSequentialForward.fog[62].dispatcher droppedJobsSLA 3718
scalar FogSequentialForward.fog[62].dispatcher jobs_class_1 3599019
scalar FogSequentialForward.fog[62].dispatcher remoteJobs_class_1 3595298
scalar FogSequentialForward.fog[62].dispatcher localJobs_class_1 3
scalar FogSequentialForward.fog[62].dispatcher droppedJobsSLA_class_1 3718
scalar FogSequentialForward.fog[62].server[0] rho 0.00046568198013119
scalar FogSequentialForward.fog[62].server[0] congestionRatio 0
scalar FogSequentialForward.fog[62].server[0] totalJobs 3
scalar FogSequentialForward.fog[62].server[0] droppedJobsQueue 0
scalar FogSequentialForward.fog[62].server[0] droppedJobsTimout 0
scalar FogSequentialForward.fog[62].server[0] droppedJobsSLA 0
scalar FogSequentialForward.fog[62].server[0] droppedJobsTotal 0
scalar FogSequentialForward.fog[63].dispatcher localJobs 1
scalar FogSequentialForward.fog[63].dispatcher internalJobs 3671
scalar FogSequentialForward.fog[63].dispatcher externalJobs 3597478
scalar FogSequentialForward.fog[63].dispatcher remoteJobs 3597511
scalar FogSequentialForward.fog[63].dispatcher probeQueries 0
scalar FogSequentialForward.fog[63].dispatcher probeAnswers 0
scalar FogSequentialForward.fog[63].dispatcher droppedJobsSLA 3637
scalar FogSequentialForward.fog[63].dispatcher jobs_class_1 3601149
scalar FogSequentialForward.fog[63].dispatcher remoteJobs_class_1 3597511
scalar FogSequentialForward.fog[63].dispatcher localJobs_class_1 1
scalar FogSequentialForward.fog[63].dispatcher droppedJobsSLA_class_1 3637
scalar FogSequentialForward.fog[63].server[0] rho 0.00015534777776338
scalar FogSequentialForward.fog[63].server[0] congestionRatio 0
scalar FogSequentialForward.fog[63].server[0] totalJobs 1
scalar FogSequentialForward.fog[63].server[0] droppedJobsQueue 0
scalar FogSequentialForward.fog[63].server[0] droppedJobsTimout 0
scalar FogSequentialForward.fog[63].server[0] droppedJobsSLA 0
scalar FogSequentialForward.fog[63].server[0] droppedJobsTotal 0
scalar FogSequentialForward.fog[64].dispatcher localJobs 2
scalar FogSequentialForward.fog[64].dispatcher internalJobs 3543
scalar FogSequentialForward.fog[64].dispatcher externalJobs 3598609
scalar FogSequentialForward.fog[64].dispatcher remoteJobs 3598433
scalar FogSequentialForward.fog[64].dispatcher probeQueries 0
scalar FogSequentialForward.fog[64].dispatcher probeAnswers 0
scalar FogSequentialForward.fog[64].dispatcher droppedJobsSLA 3717
scalar FogSequentialForward.fog[64].dispatcher jobs_class_1 3602152
scalar FogSequentialForward.fog[64].dispatcher remoteJobs_class_1 3598433
scalar FogSequentialForward.fog[64].dispatcher localJobs_class_1 2
scalar FogSequentialForward.fog[64].dispatcher droppedJobsSLA_class_1 3717
scalar FogSequentialForward.fog[64].server[0] rho 0.0003104496281594
scalar FogSequentialForward.fog[64].server[0] congestionRatio 0
scalar FogSequentialForward.fog[64].server[0] totalJobs 2
scalar FogSequentialForward.fog[64].server[0] droppedJobsQueue 0
scalar FogSequentialForward.fog[64].server[0] droppedJobsTimout 0
scalar FogSequentialForward.fog[64].server[0] droppedJobsSLA 0
scalar FogSequentialForward.fog[64].server[0] droppedJobsTotal 0
scalar FogSequentialForward.fog[65].dispatcher localJobs 1
scalar FogSequentialForward.fog[65].dispatcher internalJobs 3644
scalar FogSequentialForward.fog[65].dispatcher externalJobs 3598550
scalar FogSequentialForward.fog[65].dispatcher remoteJobs 3598602
scalar FogSequentialForward.fog[65].dispatcher probeQueries 0
scalar FogSequentialForward.fog[65].dispatcher probeAnswers 0
scalar FogSequentialForward.fog[65].dispatcher droppedJobsSLA 3591
scalar FogSequentialForward.fog[65].dispatcher jobs_class_1 3602194
scalar FogSequentialForward.fog[65].dispatcher remoteJobs_class_1 3598602
scalar FogSequentialForward.fog[65].dispatcher localJobs_class_1 1
scalar FogSequentialForward.fog[65].dispatcher droppedJobsSLA_class_1 3591
scalar FogSequentialForward.fog[65].server[0] rho 0.00014953591744415
scalar FogSequentialForward.fog[65].server[0] congestionRatio 0
scalar FogSequentialForward.fog[65].server[0] totalJobs 1
scalar FogSequentialForward.fog[65].server[0] droppedJobsQueue 0
scalar FogSequentialForward.fog[65].server[0] droppedJobsTimout 0
scalar FogSequentialForward.fog[65].server[0] droppedJobsSLA 0
scalar FogSequentialForward.fog[65].server[0] droppedJobsTotal 0
scalar FogSequentialForward.fog[66].dispatcher localJobs 3
scalar FogSequentialForward.fog[66].dispatcher internalJobs 3628
scalar FogSequentialForward.fog[66].dispatcher externalJobs 3596194
scalar FogSequentialForward.fog[66].dispatcher remoteJobs 3596269
scalar FogSequentialForward.fog[66].dispatcher probeQueries 0
scalar FogSequentialForward.fog[66].dispatcher probeAnswers 0
scalar FogSequentialForward.fog[66].dispatcher droppedJobsSLA 3550
scalar FogSequentialForward.fog[66].dispatcher jobs_class_1 3599822
scalar FogSequentialForward.fog[66].dispatcher remoteJobs_class_1 3596269
scalar FogSequentialForward.fog[66].dispatcher localJobs_class_1 3
scalar FogSequentialForward.fog[66].dispatcher droppedJobsSLA_class_1 3550
[...]
scalar FogSequentialForward.fog[84].dispatcher localJobs 1
scalar FogSequentialForward.fog[84].dispatcher internalJobs 3609
scalar FogSequentialForward.fog[84].dispatcher externalJobs 3595715
scalar FogSequentialForward.fog[84].dispatcher remoteJobs 3595669
scalar FogSequentialForward.fog[84].dispatcher probeQueries 0
scalar FogSequentialForward.fog[84].dispatcher probeAnswers 0
scalar FogSequentialForward.fog[84].dispatcher droppedJobsSLA 3654
scalar FogSequentialForward.fog[84].dispatcher jobs_class_1 3599324
scalar FogSequentialForward.fog[84].dispatcher remoteJobs_class_1 3595669
scalar FogSequentialForward.fog[84].dispatcher localJobs_class_1 1
scalar FogSequentialForward.fog[84].dispatcher droppedJobsSLA_class_1 3654
scalar FogSequentialForward.fog[84].server[0] rho 0.00015411201457027
scalar FogSequentialForward.fog[84].server[0] congestionRatio 0
scalar FogSequentialForward.fog[84].server[0] totalJobs 1
scalar FogSequentialForward.fog[84].server[0] droppedJobsQueue 0
scalar FogSequentialForward.fog[84].server[0] droppedJobsTimout 0
scalar FogSequentialForward.fog[84].server[0] droppedJobsSLA 0
scalar FogSequentialForward.fog[84].server[0] droppedJobsTotal 0
scalar FogSequentialForward.fog[85].dispatcher localJobs 1
scalar FogSequentialForward.fog[85].dispatcher internalJobs 3552
scalar FogSequentialForward.fog[85].dispatcher externalJobs 3596449
scalar FogSequentialForward.fog[85].dispatcher remoteJobs 3596361
scalar FogSequentialForward.fog[85].dispatcher probeQueries 0
scalar FogSequentialForward.fog[85].dispatcher probeAnswers 0
scalar FogSequentialForward.fog[85].dispatcher droppedJobsSLA 3639
scalar FogSequentialForward.fog[85].dispatcher jobs_class_1 3600001
scalar FogSequentialForward.fog[85].dispatcher remoteJobs_class_1 3596361
scalar FogSequentialForward.fog[85].dispatcher localJobs_class_1 1
scalar FogSequentialForward.fog[85].dispatcher droppedJobsSLA_class_1 3639
scalar FogSequentialForward.fog[85].server[0] rho 0.0001598786766408
scalar FogSequentialForward.fog[85].server[0] congestionRatio 0
scalar FogSequentialForward.fog[85].server[0] totalJobs 1
scalar FogSequentialForward.fog[85].server[0] droppedJobsQueue 0
scalar FogSequentialForward.fog[85].server[0] droppedJobsTimout 0
scalar FogSequentialForward.fog[85].server[0] droppedJobsSLA 0
scalar FogSequentialForward.fog[85].server[0] droppedJobsTotal 0
scalar FogSequentialForward.fog[86].dispatcher localJobs 1
scalar FogSequentialForward.fog[86].dispatcher internalJobs 3642
scalar FogSequentialForward.fog[86].dispatcher externalJobs 3600526
scalar FogSequentialForward.fog[86].dispatcher remoteJobs 3600609
scalar FogSequentialForward.fog[86].dispatcher probeQueries 0
scalar FogSequentialForward.fog[86].dispatcher probeAnswers 0
scalar FogSequentialForward.fog[86].dispatcher droppedJobsSLA 3558
scalar FogSequentialForward.fog[86].dispatcher jobs_class_1 3604168
scalar FogSequentialForward.fog[86].dispatcher remoteJobs_class_1 3600609
scalar FogSequentialForward.fog[86].dispatcher localJobs_class_1 1
scalar FogSequentialForward.fog[86].dispatcher droppedJobsSLA_class_1 3558
scalar FogSequentialForward.fog[86].server[0] rho 0.00015948225336615
scalar FogSequentialForward.fog[86].server[0] congestionRatio 0
scalar FogSequentialForward.fog[86].server[0] totalJobs 1
scalar FogSequentialForward.fog[86].server[0] droppedJobsQueue 0
scalar FogSequentialForward.fog[86].server[0] droppedJobsTimout 0
scalar FogSequentialForward.fog[86].server[0] droppedJobsSLA 0
scalar FogSequentialForward.fog[86].server[0] droppedJobsTotal 0
scalar FogSequentialForward.fog[87].dispatcher localJobs 1
scalar FogSequentialForward.fog[87].dispatcher internalJobs 3636
scalar FogSequentialForward.fog[87].dispatcher externalJobs 3598140
scalar FogSequentialForward.fog[87].dispatcher remoteJobs 3598262
scalar FogSequentialForward.fog[87].dispatcher probeQueries 0
scalar FogSequentialForward.fog[87].dispatcher probeAnswers 0
scalar FogSequentialForward.fog[87].dispatcher droppedJobsSLA 3513
scalar FogSequentialForward.fog[87].dispatcher jobs_class_1 3601776
scalar FogSequentialForward.fog[87].dispatcher remoteJobs_class_1 3598262
scalar FogSequentialForward.fog[87].dispatcher localJobs_class_1 1
scalar FogSequentialForward.fog[87].dispatcher droppedJobsSLA_class_1 3513
scalar FogSequentialForward.fog[87].server[0] rho 0.00015107420040295
scalar FogSequentialForward.fog[87].server[0] congestionRatio 0
scalar FogSequentialForward.fog[87].server[0] totalJobs 1
scalar FogSequentialForward.fog[87].server[0] droppedJobsQueue 0
scalar FogSequentialForward.fog[87].server[0] droppedJobsTimout 0
scalar FogSequentialForward.fog[87].server[0] droppedJobsSLA 0
scalar FogSequentialForward.fog[87].server[0] droppedJobsTotal 0
scalar FogSequentialForward.fog[88].dispatcher localJobs 2
scalar FogSequentialForward.fog[88].dispatcher internalJobs 3629
scalar FogSequentialForward.fog[88].dispatcher externalJobs 3598437
scalar FogSequentialForward.fog[88].dispatcher remoteJobs 3598486
scalar FogSequentialForward.fog[88].dispatcher probeQueries 0
scalar FogSequentialForward.fog[88].dispatcher probeAnswers 0
scalar FogSequentialForward.fog[88].dispatcher droppedJobsSLA 3578
scalar FogSequentialForward.fog[88].dispatcher jobs_class_1 3602066
scalar FogSequentialForward.fog[88].dispatcher remoteJobs_class_1 3598486
scalar FogSequentialForward.fog[88].dispatcher localJobs_class_1 2
scalar FogSequentialForward.fog[88].dispatcher droppedJobsSLA_class_1 3578
scalar FogSequentialForward.fog[88].server[0] rho 0.00030359148513526
scalar FogSequentialForward.fog[88].server[0] congestionRatio 0
scalar FogSequentialForward.fog[88].server[0] totalJobs 2
scalar FogSequentialForward.fog[88].server[0] droppedJobsQueue 0
scalar FogSequentialForward.fog[88].server[0] droppedJobsTimout 0
scalar FogSequentialForward.fog[88].server[0] droppedJobsSLA 0
scalar FogSequentialForward.fog[88].server[0] droppedJobsTotal 0
scalar FogSequentialForward.fog[89].dispatcher localJobs 1
scalar FogSequentialForward.fog[89].dispatcher internalJobs 3593
scalar FogSequentialForward.fog[89].dispatcher externalJobs 3600194
scalar FogSequentialForward.fog[89].dispatcher remoteJobs 3600161
scalar FogSequentialForward.fog[89].dispatcher probeQueries 0
scalar FogSequentialForward.fog[89].dispatcher probeAnswers 0
scalar FogSequentialForward.fog[89].dispatcher droppedJobsSLA 3625
scalar FogSequentialForward.fog[89].dispatcher jobs_class_1 3603787
scalar FogSequentialForward.fog[89].dispatcher remoteJobs_class_1 3600161
scalar FogSequentialForward.fog[89].dispatcher localJobs_class_1 1
scalar FogSequentialForward.fog[89].dispatcher droppedJobsSLA_class_1 3625
scalar FogSequentialForward.fog[89].server[0] rho 0.00015633409202565
scalar FogSequentialForward.fog[89].server[0] congestionRatio 0
scalar FogSequentialForward.fog[89].server[0] totalJobs 1
scalar FogSequentialForward.fog[89].server[0] droppedJobsQueue 0
scalar FogSequentialForward.fog[89].server[0] droppedJobsTimout 0
scalar FogSequentialForward.fog[89].server[0] droppedJobsSLA 0
scalar FogSequentialForward.fog[89].server[0] droppedJobsTotal 0
scalar FogSequentialForward.fog[90].dispatcher localJobs 2
scalar FogSequentialForward.fog[90].dispatcher internalJobs 3553
scalar FogSequentialForward.fog[90].dispatcher externalJobs 3597560
scalar FogSequentialForward.fog[90].dispatcher remoteJobs 3597492
scalar FogSequentialForward.fog[90].dispatcher probeQueries 0
scalar FogSequentialForward.fog[90].dispatcher probeAnswers 0
scalar FogSequentialForward.fog[90].dispatcher droppedJobsSLA 3619
scalar FogSequentialForward.fog[90].dispatcher jobs_class_1 3601113
scalar FogSequentialForward.fog[90].dispatcher remoteJobs_class_1 3597492
scalar FogSequentialForward.fog[90].dispatcher localJobs_class_1 2
scalar FogSequentialForward.fog[90].dispatcher droppedJobsSLA_class_1 3619
scalar FogSequentialForward.fog[90].server[0] rho 0.00030683452496305
scalar FogSequentialForward.fog[90].server[0] congestionRatio 0
scalar FogSequentialForward.fog[90].server[0] totalJobs 2
scalar FogSequentialForward.fog[90].server[0] droppedJobsQueue 0
scalar FogSequentialForward.fog[90].server[0] droppedJobsTimout 0
scalar FogSequentialForward.fog[90].server[0] droppedJobsSLA 0
scalar FogSequentialForward.fog[90].server[0] droppedJobsTotal 0
scalar FogSequentialForward.fog[91].dispatcher localJobs 1
scalar FogSequentialForward.fog[91].dispatcher internalJobs 3541
scalar FogSequentialForward.fog[91].dispatcher externalJobs 3599575
scalar FogSequentialForward.fog[91].dispatcher remoteJobs 3599615
scalar FogSequentialForward.fog[91].dispatcher probeQueries 0
scalar FogSequentialForward.fog[91].dispatcher probeAnswers 0
scalar FogSequentialForward.fog[91].dispatcher droppedJobsSLA 3500
scalar FogSequentialForward.fog[91].dispatcher jobs_class_1 3603116
scalar FogSequentialForward.fog[91].dispatcher remoteJobs_class_1 3599615
scalar FogSequentialForward.fog[91].dispatcher localJobs_class_1 1
scalar FogSequentialForward.fog[91].dispatcher droppedJobsSLA_class_1 3500
scalar FogSequentialForward.fog[91].server[0] rho 0.00015777684166096
scalar FogSequentialForward.fog[91].server[0] congestionRatio 0
scalar FogSequentialForward.fog[91].server[0] totalJobs 1
scalar FogSequentialForward.fog[91].server[0] droppedJobsQueue 0
scalar FogSequentialForward.fog[91].server[0] droppedJobsTimout 0
scalar FogSequentialForward.fog[91].server[0] droppedJobsSLA 0
scalar FogSequentialForward.fog[91].server[0] droppedJobsTotal 0
scalar FogSequentialForward.fog[92].dispatcher localJobs 2
scalar FogSequentialForward.fog[92].dispatcher internalJobs 3600
scalar FogSequentialForward.fog[92].dispatcher externalJobs 3596860
scalar FogSequentialForward.fog[92].dispatcher remoteJobs 3596900
scalar FogSequentialForward.fog[92].dispatcher probeQueries 0
scalar FogSequentialForward.fog[92].dispatcher probeAnswers 0
scalar FogSequentialForward.fog[92].dispatcher droppedJobsSLA 3558
scalar FogSequentialForward.fog[92].dispatcher jobs_class_1 3600460
scalar FogSequentialForward.fog[92].dispatcher remoteJobs_class_1 3596900
scalar FogSequentialForward.fog[92].dispatcher localJobs_class_1 2
scalar FogSequentialForward.fog[92].dispatcher droppedJobsSLA_class_1 3558
scalar FogSequentialForward.fog[92].server[0] rho 0.00031600057263859
scalar FogSequentialForward.fog[92].server[0] congestionRatio 0
scalar FogSequentialForward.fog[92].server[0] totalJobs 2
scalar FogSequentialForward.fog[92].server[0] droppedJobsQueue 0
scalar FogSequentialForward.fog[92].server[0] droppedJobsTimout 0
scalar FogSequentialForward.fog[92].server[0] droppedJobsSLA 0
scalar FogSequentialForward.fog[92].server[0] droppedJobsTotal 0
scalar FogSequentialForward.fog[93].dispatcher localJobs 2
scalar FogSequentialForward.fog[93].dispatcher internalJobs 3579
scalar FogSequentialForward.fog[93].dispatcher externalJobs 3600668
scalar FogSequentialForward.fog[93].dispatcher remoteJobs 3600681
scalar FogSequentialForward.fog[93].dispatcher probeQueries 0
scalar FogSequentialForward.fog[93].dispatcher probeAnswers 0
scalar FogSequentialForward.fog[93].dispatcher droppedJobsSLA 3564
scalar FogSequentialForward.fog[93].dispatcher jobs_class_1 3604247
scalar FogSequentialForward.fog[93].dispatcher remoteJobs_class_1 3600681
scalar FogSequentialForward.fog[93].dispatcher localJobs_class_1 2
scalar FogSequentialForward.fog[93].dispatcher droppedJobsSLA_class_1 3564
scalar FogSequentialForward.fog[93].server[0] rho 0.00030609939130954
scalar FogSequentialForward.fog[93].server[0] congestionRatio 0
scalar FogSequentialForward.fog[93].server[0] totalJobs 2
scalar FogSequentialForward.fog[93].server[0] droppedJobsQueue 0
scalar FogSequentialForward.fog[93].server[0] droppedJobsTimout 0
scalar FogSequentialForward.fog[93].server[0] droppedJobsSLA 0
scalar FogSequentialForward.fog[93].server[0] droppedJobsTotal 0
scalar FogSequentialForward.fog[94].dispatcher localJobs 2
scalar FogSequentialForward.fog[94].dispatcher internalJobs 3591
scalar FogSequentialForward.fog[94].dispatcher externalJobs 3597492
scalar FogSequentialForward.fog[94].dispatcher remoteJobs 3597521
scalar FogSequentialForward.fog[94].dispatcher probeQueries 0
scalar FogSequentialForward.fog[94].dispatcher probeAnswers 0
scalar FogSequentialForward.fog[94].dispatcher droppedJobsSLA 3560
scalar FogSequentialForward.fog[94].dispatcher jobs_class_1 3601083
scalar FogSequentialForward.fog[94].dispatcher remoteJobs_class_1 3597521
scalar FogSequentialForward.fog[94].dispatcher localJobs_class_1 2
scalar FogSequentialForward.fog[94].dispatcher droppedJobsSLA_class_1 3560
scalar FogSequentialForward.fog[94].server[0] rho 0.00031539244810119
scalar FogSequentialForward.fog[94].server[0] congestionRatio 0
scalar FogSequentialForward.fog[94].server[0] totalJobs 2
scalar FogSequentialForward.fog[94].server[0] droppedJobsQueue 0
scalar FogSequentialForward.fog[94].server[0] droppedJobsTimout 0
scalar FogSequentialForward.fog[94].server[0] droppedJobsSLA 0
scalar FogSequentialForward.fog[94].server[0] droppedJobsTotal 0
scalar FogSequentialForward.fog[95].dispatcher localJobs 1
scalar FogSequentialForward.fog[95].dispatcher internalJobs 3681
scalar FogSequentialForward.fog[95].dispatcher externalJobs 3598475
scalar FogSequentialForward.fog[95].dispatcher remoteJobs 3598544
scalar FogSequentialForward.fog[95].dispatcher probeQueries 0
scalar FogSequentialForward.fog[95].dispatcher probeAnswers 0
scalar FogSequentialForward.fog[95].dispatcher droppedJobsSLA 3611
scalar FogSequentialForward.fog[95].dispatcher jobs_class_1 3602156
scalar FogSequentialForward.fog[95].dispatcher remoteJobs_class_1 3598544
scalar FogSequentialForward.fog[95].dispatcher localJobs_class_1 1
scalar FogSequentialForward.fog[95].dispatcher droppedJobsSLA_class_1 3611
scalar FogSequentialForward.fog[95].server[0] rho 0.00015821571287233
scalar FogSequentialForward.fog[95].server[0] congestionRatio 0
scalar FogSequentialForward.fog[95].server[0] totalJobs 1
scalar FogSequentialForward.fog[95].server[0] droppedJobsQueue 0
scalar FogSequentialForward.fog[95].server[0] droppedJobsTimout 0
scalar FogSequentialForward.fog[95].server[0] droppedJobsSLA 0
scalar FogSequentialForward.fog[95].server[0] droppedJobsTotal 0
scalar FogSequentialForward.fog[96].dispatcher localJobs 1
scalar FogSequentialForward.fog[96].dispatcher internalJobs 3699
scalar FogSequentialForward.fog[96].dispatcher externalJobs 3597355
scalar FogSequentialForward.fog[96].dispatcher remoteJobs 3597458
scalar FogSequentialForward.fog[96].dispatcher probeQueries 0
scalar FogSequentialForward.fog[96].dispatcher probeAnswers 0
scalar FogSequentialForward.fog[96].dispatcher droppedJobsSLA 3595
scalar FogSequentialForward.fog[96].dispatcher jobs_class_1 3601054
scalar FogSequentialForward.fog[96].dispatcher remoteJobs_class_1 3597458
scalar FogSequentialForward.fog[96].dispatcher localJobs_class_1 1
scalar FogSequentialForward.fog[96].dispatcher droppedJobsSLA_class_1 3595
scalar FogSequentialForward.fog[96].server[0] rho 0.00015828236064408
scalar FogSequentialForward.fog[96].server[0] congestionRatio 0
scalar FogSequentialForward.fog[96].server[0] totalJobs 1
scalar FogSequentialForward.fog[96].server[0] droppedJobsQueue 0
scalar FogSequentialForward.fog[96].server[0] droppedJobsTimout 0
scalar FogSequentialForward.fog[96].server[0] droppedJobsSLA 0
scalar FogSequentialForward.fog[96].server[0] droppedJobsTotal 0
scalar FogSequentialForward.fog[97].dispatcher localJobs 3
scalar FogSequentialForward.fog[97].dispatcher internalJobs 3637
scalar FogSequentialForward.fog[97].dispatcher externalJobs 3597099
scalar FogSequentialForward.fog[97].dispatcher remoteJobs 3597089
scalar FogSequentialForward.fog[97].dispatcher probeQueries 0
scalar FogSequentialForward.fog[97].dispatcher probeAnswers 0
scalar FogSequentialForward.fog[97].dispatcher droppedJobsSLA 3644
scalar FogSequentialForward.fog[97].dispatcher jobs_class_1 3600736
scalar FogSequentialForward.fog[97].dispatcher remoteJobs_class_1 3597089
scalar FogSequentialForward.fog[97].dispatcher localJobs_class_1 3
scalar FogSequentialForward.fog[97].dispatcher droppedJobsSLA_class_1 3644
scalar FogSequentialForward.fog[97].server[0] rho 0.00047375628491864
scalar FogSequentialForward.fog[97].server[0] congestionRatio 0
scalar FogSequentialForward.fog[97].server[0] totalJobs 3
scalar FogSequentialForward.fog[97].server[0] droppedJobsQueue 0
scalar FogSequentialForward.fog[97].server[0] droppedJobsTimout 0
scalar FogSequentialForward.fog[97].server[0] droppedJobsSLA 0
scalar FogSequentialForward.fog[97].server[0] droppedJobsTotal 0
scalar FogSequentialForward.fog[98].dispatcher localJobs 1
scalar FogSequentialForward.fog[98].dispatcher internalJobs 3567
scalar FogSequentialForward.fog[98].dispatcher externalJobs 3594535
scalar FogSequentialForward.fog[98].dispatcher remoteJobs 3594459
scalar FogSequentialForward.fog[98].dispatcher probeQueries 0
scalar FogSequentialForward.fog[98].dispatcher probeAnswers 0
scalar FogSequentialForward.fog[98].dispatcher droppedJobsSLA 3642
scalar FogSequentialForward.fog[98].dispatcher jobs_class_1 3598102
scalar FogSequentialForward.fog[98].dispatcher remoteJobs_class_1 3594459
scalar FogSequentialForward.fog[98].dispatcher localJobs_class_1 1
scalar FogSequentialForward.fog[98].dispatcher droppedJobsSLA_class_1 3642
scalar FogSequentialForward.fog[98].server[0] rho 0.00015419124974869
scalar FogSequentialForward.fog[98].server[0] congestionRatio 0
scalar FogSequentialForward.fog[98].server[0] totalJobs 1
scalar FogSequentialForward.fog[98].server[0] droppedJobsQueue 0
scalar FogSequentialForward.fog[98].server[0] droppedJobsTimout 0
scalar FogSequentialForward.fog[98].server[0] droppedJobsSLA 0
scalar FogSequentialForward.fog[98].server[0] droppedJobsTotal 0
scalar FogSequentialForward.fog[99].dispatcher localJobs 1
scalar FogSequentialForward.fog[99].dispatcher internalJobs 3597
scalar FogSequentialForward.fog[99].dispatcher externalJobs 3593740
scalar FogSequentialForward.fog[99].dispatcher remoteJobs 3593767
scalar FogSequentialForward.fog[99].dispatcher probeQueries 0
scalar FogSequentialForward.fog[99].dispatcher probeAnswers 0
scalar FogSequentialForward.fog[99].dispatcher droppedJobsSLA 3569
scalar FogSequentialForward.fog[99].dispatcher jobs_class_1 3597337
scalar FogSequentialForward.fog[99].dispatcher remoteJobs_class_1 3593767
scalar FogSequentialForward.fog[99].dispatcher localJobs_class_1 1
scalar FogSequentialForward.fog[99].dispatcher droppedJobsSLA_class_1 3569
scalar FogSequentialForward.fog[99].server[0] rho 0.00015892540977802
scalar FogSequentialForward.fog[99].server[0] congestionRatio 0
scalar FogSequentialForward.fog[99].server[0] totalJobs 1
scalar FogSequentialForward.fog[99].server[0] droppedJobsQueue 0
scalar FogSequentialForward.fog[99].server[0] droppedJobsTimout 0
scalar FogSequentialForward.fog[99].server[0] droppedJobsSLA 0
scalar FogSequentialForward.fog[99].server[0] droppedJobsTotal 0
scalar FogSequentialForward.sink avg_responseTime_1 2.1849629540875
scalar FogSequentialForward.sink p90_responseTime_1 1.602160973566
scalar FogSequentialForward.sink med_responseTime_1 1.602160973566
scalar FogSequentialForward.sink avg_delayTime_1 0
scalar FogSequentialForward.sink p90_delayTime_1 0
scalar FogSequentialForward.sink med_delayTime_1 0
scalar FogSequentialForward.sink avg_queuingTime_1 0.51423166082942
scalar FogSequentialForward.sink p90_queuingTime_1 0
scalar FogSequentialForward.sink med_queuingTime_1 0
scalar FogSequentialForward.sink avg_serviceTime_1 1.670731293258
scalar FogSequentialForward.sink p90_serviceTime_1 1.599442619626
scalar FogSequentialForward.sink med_serviceTime_1 1.599442619626
scalar FogSequentialForward.sink avg_balancerTime_1 0
scalar FogSequentialForward.sink p90_balancerTime_1 0
scalar FogSequentialForward.sink med_balancerTime_1 0
scalar FogSequentialForward.sink avg_balancerCount_1 1
scalar FogSequentialForward.sink p90_balancerCount_1 1
scalar FogSequentialForward.sink med_balancerCount_1 1

