version 2
run Fog-mul_001-rho_09-thr_10-4-20190713-20:04:57-72379
attr configname Fog-mul_001-rho_09-thr_10
attr datetime 20190713-20:04:57
attr experiment Fog-mul_001-rho_09-thr_10
attr inifile FogSequentialForward.ini
attr iterationvars ""
attr iterationvarsf ""
attr measurement ""
attr network FogSequentialForward
attr processid 72379
attr repetition 4
attr replication #4
attr resultdir results
attr runnumber 4
attr seedset 4
param FogSequentialForward.proctimeMul 0.01
param FogSequentialForward.rho 0.9
param FogSequentialForward.fog[*].dispatcher.thr 10
param FogSequentialForward.nSources 100
param FogSequentialForward.rho 0.9
param FogSequentialForward.proctimeMul 1.0
param FogSequentialForward.source[*].appId 1
param FogSequentialForward.source[*].realTime true
param FogSequentialForward.source[*].multiHop true
param FogSequentialForward.fog[*].nServers 1
param FogSequentialForward.fog[*].dispatcher.fanOut 1
param FogSequentialForward.fog[*].server[*].timeSlice -1s
param FogSequentialForward.fog[*].server[*].timeout -1s
param FogSequentialForward.fog[*].server[*].capacity 20
param FogSequentialForward.fog[*].server[*].fifo true
param FogSequentialForward.fog[*].server[*].maxServiceTime -1s
param FogSequentialForward.fog[*].dispatcher.thr 1

scalar FogSequentialForward.fog[0].dispatcher localJobs 1390883
scalar FogSequentialForward.fog[0].dispatcher internalJobs 1622888
scalar FogSequentialForward.fog[0].dispatcher externalJobs 6840172
scalar FogSequentialForward.fog[0].dispatcher remoteJobs 6838695
scalar FogSequentialForward.fog[0].dispatcher probeQueries 0
scalar FogSequentialForward.fog[0].dispatcher probeAnswers 0
scalar FogSequentialForward.fog[0].dispatcher droppedJobsSLA 233482
scalar FogSequentialForward.fog[0].dispatcher jobs_class_1 8463060
scalar FogSequentialForward.fog[0].dispatcher remoteJobs_class_1 6838695
scalar FogSequentialForward.fog[0].dispatcher localJobs_class_1 1390883
scalar FogSequentialForward.fog[0].dispatcher droppedJobsSLA_class_1 233482
scalar FogSequentialForward.fog[0].server[0] rho 1
scalar FogSequentialForward.fog[0].server[0] congestionRatio 0
scalar FogSequentialForward.fog[0].server[0] totalJobs 1390883
scalar FogSequentialForward.fog[0].server[0] droppedJobsQueue 39300
scalar FogSequentialForward.fog[0].server[0] droppedJobsTimout 0
scalar FogSequentialForward.fog[0].server[0] droppedJobsSLA 873059
scalar FogSequentialForward.fog[0].server[0] droppedJobsTotal 912359
scalar FogSequentialForward.fog[1].dispatcher localJobs 1389141
scalar FogSequentialForward.fog[1].dispatcher internalJobs 1623422
scalar FogSequentialForward.fog[1].dispatcher externalJobs 6837772
scalar FogSequentialForward.fog[1].dispatcher remoteJobs 6838563
scalar FogSequentialForward.fog[1].dispatcher probeQueries 0
scalar FogSequentialForward.fog[1].dispatcher probeAnswers 0
scalar FogSequentialForward.fog[1].dispatcher droppedJobsSLA 233490
scalar FogSequentialForward.fog[1].dispatcher jobs_class_1 8461194
scalar FogSequentialForward.fog[1].dispatcher remoteJobs_class_1 6838563
scalar FogSequentialForward.fog[1].dispatcher localJobs_class_1 1389141
scalar FogSequentialForward.fog[1].dispatcher droppedJobsSLA_class_1 233490
scalar FogSequentialForward.fog[1].server[0] rho 1
scalar FogSequentialForward.fog[1].server[0] congestionRatio 0
scalar FogSequentialForward.fog[1].server[0] totalJobs 1389141
scalar FogSequentialForward.fog[1].server[0] droppedJobsQueue 38955
scalar FogSequentialForward.fog[1].server[0] droppedJobsTimout 0
scalar FogSequentialForward.fog[1].server[0] droppedJobsSLA 872236
scalar FogSequentialForward.fog[1].server[0] droppedJobsTotal 911191
scalar FogSequentialForward.fog[2].dispatcher localJobs 1388819
scalar FogSequentialForward.fog[2].dispatcher internalJobs 1622951
scalar FogSequentialForward.fog[2].dispatcher externalJobs 6831935
scalar FogSequentialForward.fog[2].dispatcher remoteJobs 6833385
scalar FogSequentialForward.fog[2].dispatcher probeQueries 0
scalar FogSequentialForward.fog[2].dispatcher probeAnswers 0
scalar FogSequentialForward.fog[2].dispatcher droppedJobsSLA 232682
scalar FogSequentialForward.fog[2].dispatcher jobs_class_1 8454886
scalar FogSequentialForward.fog[2].dispatcher remoteJobs_class_1 6833385
scalar FogSequentialForward.fog[2].dispatcher localJobs_class_1 1388819
scalar FogSequentialForward.fog[2].dispatcher droppedJobsSLA_class_1 232682
scalar FogSequentialForward.fog[2].server[0] rho 1
scalar FogSequentialForward.fog[2].server[0] congestionRatio 0
scalar FogSequentialForward.fog[2].server[0] totalJobs 1388819
scalar FogSequentialForward.fog[2].server[0] droppedJobsQueue 38788
scalar FogSequentialForward.fog[2].server[0] droppedJobsTimout 0
scalar FogSequentialForward.fog[2].server[0] droppedJobsSLA 871128
scalar FogSequentialForward.fog[2].server[0] droppedJobsTotal 909916
scalar FogSequentialForward.fog[3].dispatcher localJobs 1388999
scalar FogSequentialForward.fog[3].dispatcher internalJobs 1623245
scalar FogSequentialForward.fog[3].dispatcher externalJobs 6838021
scalar FogSequentialForward.fog[3].dispatcher remoteJobs 6839105
scalar FogSequentialForward.fog[3].dispatcher probeQueries 0
scalar FogSequentialForward.fog[3].dispatcher probeAnswers 0
scalar FogSequentialForward.fog[3].dispatcher droppedJobsSLA 233162
scalar FogSequentialForward.fog[3].dispatcher jobs_class_1 8461266
scalar FogSequentialForward.fog[3].dispatcher remoteJobs_class_1 6839105
scalar FogSequentialForward.fog[3].dispatcher localJobs_class_1 1388999
scalar FogSequentialForward.fog[3].dispatcher droppedJobsSLA_class_1 233162
scalar FogSequentialForward.fog[3].server[0] rho 1
scalar FogSequentialForward.fog[3].server[0] congestionRatio 0
scalar FogSequentialForward.fog[3].server[0] totalJobs 1388999
scalar FogSequentialForward.fog[3].server[0] droppedJobsQueue 39206
scalar FogSequentialForward.fog[3].server[0] droppedJobsTimout 0
scalar FogSequentialForward.fog[3].server[0] droppedJobsSLA 871753
scalar FogSequentialForward.fog[3].server[0] droppedJobsTotal 910959
scalar FogSequentialForward.fog[4].dispatcher localJobs 1388871
scalar FogSequentialForward.fog[4].dispatcher internalJobs 1623253
scalar FogSequentialForward.fog[4].dispatcher externalJobs 6844091
scalar FogSequentialForward.fog[4].dispatcher remoteJobs 6844422
scalar FogSequentialForward.fog[4].dispatcher probeQueries 0
scalar FogSequentialForward.fog[4].dispatcher probeAnswers 0
scalar FogSequentialForward.fog[4].dispatcher droppedJobsSLA 234051
scalar FogSequentialForward.fog[4].dispatcher jobs_class_1 8467344
scalar FogSequentialForward.fog[4].dispatcher remoteJobs_class_1 6844422
scalar FogSequentialForward.fog[4].dispatcher localJobs_class_1 1388871
scalar FogSequentialForward.fog[4].dispatcher droppedJobsSLA_class_1 234051
scalar FogSequentialForward.fog[4].server[0] rho 1
scalar FogSequentialForward.fog[4].server[0] congestionRatio 0
scalar FogSequentialForward.fog[4].server[0] totalJobs 1388871
scalar FogSequentialForward.fog[4].server[0] droppedJobsQueue 39180
scalar FogSequentialForward.fog[4].server[0] droppedJobsTimout 0
scalar FogSequentialForward.fog[4].server[0] droppedJobsSLA 872342
scalar FogSequentialForward.fog[4].server[0] droppedJobsTotal 911522
scalar FogSequentialForward.fog[5].dispatcher localJobs 1388846
scalar FogSequentialForward.fog[5].dispatcher internalJobs 1621960
scalar FogSequentialForward.fog[5].dispatcher externalJobs 6835855
scalar FogSequentialForward.fog[5].dispatcher remoteJobs 6835812
scalar FogSequentialForward.fog[5].dispatcher probeQueries 0
scalar FogSequentialForward.fog[5].dispatcher probeAnswers 0
scalar FogSequentialForward.fog[5].dispatcher droppedJobsSLA 233157
scalar FogSequentialForward.fog[5].dispatcher jobs_class_1 8457815
scalar FogSequentialForward.fog[5].dispatcher remoteJobs_class_1 6835812
scalar FogSequentialForward.fog[5].dispatcher localJobs_class_1 1388846
scalar FogSequentialForward.fog[5].dispatcher droppedJobsSLA_class_1 233157
scalar FogSequentialForward.fog[5].server[0] rho 1
scalar FogSequentialForward.fog[5].server[0] congestionRatio 0
scalar FogSequentialForward.fog[5].server[0] totalJobs 1388846
scalar FogSequentialForward.fog[5].server[0] droppedJobsQueue 38942
scalar FogSequentialForward.fog[5].server[0] droppedJobsTimout 0
scalar FogSequentialForward.fog[5].server[0] droppedJobsSLA 871713
scalar FogSequentialForward.fog[5].server[0] droppedJobsTotal 910655
scalar FogSequentialForward.fog[6].dispatcher localJobs 1391018
scalar FogSequentialForward.fog[6].dispatcher internalJobs 1622391
scalar FogSequentialForward.fog[6].dispatcher externalJobs 6838023
scalar FogSequentialForward.fog[6].dispatcher remoteJobs 6836518
scalar FogSequentialForward.fog[6].dispatcher probeQueries 0
scalar FogSequentialForward.fog[6].dispatcher probeAnswers 0
scalar FogSequentialForward.fog[6].dispatcher droppedJobsSLA 232878
scalar FogSequentialForward.fog[6].dispatcher jobs_class_1 8460414
scalar FogSequentialForward.fog[6].dispatcher remoteJobs_class_1 6836518
scalar FogSequentialForward.fog[6].dispatcher localJobs_class_1 1391018
scalar FogSequentialForward.fog[6].dispatcher droppedJobsSLA_class_1 232878
scalar FogSequentialForward.fog[6].server[0] rho 1
scalar FogSequentialForward.fog[6].server[0] congestionRatio 0
scalar FogSequentialForward.fog[6].server[0] totalJobs 1391018
scalar FogSequentialForward.fog[6].server[0] droppedJobsQueue 39241
scalar FogSequentialForward.fog[6].server[0] droppedJobsTimout 0
scalar FogSequentialForward.fog[6].server[0] droppedJobsSLA 873883
scalar FogSequentialForward.fog[6].server[0] droppedJobsTotal 913124
scalar FogSequentialForward.fog[7].dispatcher localJobs 1390676
scalar FogSequentialForward.fog[7].dispatcher internalJobs 1620887
scalar FogSequentialForward.fog[7].dispatcher externalJobs 6837788
scalar FogSequentialForward.fog[7].dispatcher remoteJobs 6835034
scalar FogSequentialForward.fog[7].dispatcher probeQueries 0
scalar FogSequentialForward.fog[7].dispatcher probeAnswers 0
scalar FogSequentialForward.fog[7].dispatcher droppedJobsSLA 232965
scalar FogSequentialForward.fog[7].dispatcher jobs_class_1 8458675
scalar FogSequentialForward.fog[7].dispatcher remoteJobs_class_1 6835034
scalar FogSequentialForward.fog[7].dispatcher localJobs_class_1 1390676
scalar FogSequentialForward.fog[7].dispatcher droppedJobsSLA_class_1 232965
scalar FogSequentialForward.fog[7].server[0] rho 1
scalar FogSequentialForward.fog[7].server[0] congestionRatio 0
scalar FogSequentialForward.fog[7].server[0] totalJobs 1390676
scalar FogSequentialForward.fog[7].server[0] droppedJobsQueue 39261
scalar FogSequentialForward.fog[7].server[0] droppedJobsTimout 0
scalar FogSequentialForward.fog[7].server[0] droppedJobsSLA 873570
scalar FogSequentialForward.fog[7].server[0] droppedJobsTotal 912831
scalar FogSequentialForward.fog[8].dispatcher localJobs 1390361
scalar FogSequentialForward.fog[8].dispatcher internalJobs 1625085
scalar FogSequentialForward.fog[8].dispatcher externalJobs 6842863
scalar FogSequentialForward.fog[8].dispatcher remoteJobs 6843965
scalar FogSequentialForward.fog[8].dispatcher probeQueries 0
scalar FogSequentialForward.fog[8].dispatcher probeAnswers 0
scalar FogSequentialForward.fog[8].dispatcher droppedJobsSLA 233622
scalar FogSequentialForward.fog[8].dispatcher jobs_class_1 8467948
scalar FogSequentialForward.fog[8].dispatcher remoteJobs_class_1 6843965
scalar FogSequentialForward.fog[8].dispatcher localJobs_class_1 1390361
scalar FogSequentialForward.fog[8].dispatcher droppedJobsSLA_class_1 233622
scalar FogSequentialForward.fog[8].server[0] rho 0.99999898672104
scalar FogSequentialForward.fog[8].server[0] congestionRatio 0
scalar FogSequentialForward.fog[8].server[0] totalJobs 1390361
scalar FogSequentialForward.fog[8].server[0] droppedJobsQueue 39227
scalar FogSequentialForward.fog[8].server[0] droppedJobsTimout 0
scalar FogSequentialForward.fog[8].server[0] droppedJobsSLA 872617
scalar FogSequentialForward.fog[8].server[0] droppedJobsTotal 911844
scalar FogSequentialForward.fog[9].dispatcher localJobs 1390834
scalar FogSequentialForward.fog[9].dispatcher internalJobs 1622282
scalar FogSequentialForward.fog[9].dispatcher externalJobs 6841446
scalar FogSequentialForward.fog[9].dispatcher remoteJobs 6838691
scalar FogSequentialForward.fog[9].dispatcher probeQueries 0
scalar FogSequentialForward.fog[9].dispatcher probeAnswers 0
scalar FogSequentialForward.fog[9].dispatcher droppedJobsSLA 234203
scalar FogSequentialForward.fog[9].dispatcher jobs_class_1 8463728
scalar FogSequentialForward.fog[9].dispatcher remoteJobs_class_1 6838691
scalar FogSequentialForward.fog[9].dispatcher localJobs_class_1 1390834
scalar FogSequentialForward.fog[9].dispatcher droppedJobsSLA_class_1 234203
scalar FogSequentialForward.fog[9].server[0] rho 1
scalar FogSequentialForward.fog[9].server[0] congestionRatio 0
scalar FogSequentialForward.fog[9].server[0] totalJobs 1390834
scalar FogSequentialForward.fog[9].server[0] droppedJobsQueue 39256
scalar FogSequentialForward.fog[9].server[0] droppedJobsTimout 0
scalar FogSequentialForward.fog[9].server[0] droppedJobsSLA 873686
scalar FogSequentialForward.fog[9].server[0] droppedJobsTotal 912942
scalar FogSequentialForward.fog[10].dispatcher localJobs 1389756
scalar FogSequentialForward.fog[10].dispatcher internalJobs 1623549
scalar FogSequentialForward.fog[10].dispatcher externalJobs 6838603
scalar FogSequentialForward.fog[10].dispatcher remoteJobs 6838729
scalar FogSequentialForward.fog[10].dispatcher probeQueries 0
scalar FogSequentialForward.fog[10].dispatcher probeAnswers 0
scalar FogSequentialForward.fog[10].dispatcher droppedJobsSLA 233667
scalar FogSequentialForward.fog[10].dispatcher jobs_class_1 8462152
scalar FogSequentialForward.fog[10].dispatcher remoteJobs_class_1 6838729
scalar FogSequentialForward.fog[10].dispatcher localJobs_class_1 1389756
scalar FogSequentialForward.fog[10].dispatcher droppedJobsSLA_class_1 233667
scalar FogSequentialForward.fog[10].server[0] rho 1
scalar FogSequentialForward.fog[10].server[0] congestionRatio 0
scalar FogSequentialForward.fog[10].server[0] totalJobs 1389756
scalar FogSequentialForward.fog[10].server[0] droppedJobsQueue 39046
scalar FogSequentialForward.fog[10].server[0] droppedJobsTimout 0
scalar FogSequentialForward.fog[10].server[0] droppedJobsSLA 872571
scalar FogSequentialForward.fog[10].server[0] droppedJobsTotal 911617
scalar FogSequentialForward.fog[11].dispatcher localJobs 1390432
scalar FogSequentialForward.fog[11].dispatcher internalJobs 1623237
scalar FogSequentialForward.fog[11].dispatcher externalJobs 6832903
scalar FogSequentialForward.fog[11].dispatcher remoteJobs 6832485
scalar FogSequentialForward.fog[11].dispatcher probeQueries 0
scalar FogSequentialForward.fog[11].dispatcher probeAnswers 0
scalar FogSequentialForward.fog[11].dispatcher droppedJobsSLA 233223
scalar FogSequentialForward.fog[11].dispatcher jobs_class_1 8456140
scalar FogSequentialForward.fog[11].dispatcher remoteJobs_class_1 6832485
scalar FogSequentialForward.fog[11].dispatcher localJobs_class_1 1390432
scalar FogSequentialForward.fog[11].dispatcher droppedJobsSLA_class_1 233223
scalar FogSequentialForward.fog[11].server[0] rho 1
scalar FogSequentialForward.fog[11].server[0] congestionRatio 0
scalar FogSequentialForward.fog[11].server[0] totalJobs 1390432
scalar FogSequentialForward.fog[11].server[0] droppedJobsQueue 39285
scalar FogSequentialForward.fog[11].server[0] droppedJobsTimout 0
scalar FogSequentialForward.fog[11].server[0] droppedJobsSLA 873008
scalar FogSequentialForward.fog[11].server[0] droppedJobsTotal 912293
scalar FogSequentialForward.fog[12].dispatcher localJobs 1390499
scalar FogSequentialForward.fog[12].dispatcher internalJobs 1623367
scalar FogSequentialForward.fog[12].dispatcher externalJobs 6842132
scalar FogSequentialForward.fog[12].dispatcher remoteJobs 6842090
scalar FogSequentialForward.fog[12].dispatcher probeQueries 0
scalar FogSequentialForward.fog[12].dispatcher probeAnswers 0
scalar FogSequentialForward.fog[12].dispatcher droppedJobsSLA 232910
scalar FogSequentialForward.fog[12].dispatcher jobs_class_1 8465499
scalar FogSequentialForward.fog[12].dispatcher remoteJobs_class_1 6842090
scalar FogSequentialForward.fog[12].dispatcher localJobs_class_1 1390499
scalar FogSequentialForward.fog[12].dispatcher droppedJobsSLA_class_1 232910
scalar FogSequentialForward.fog[12].server[0] rho 0.99999958276749
scalar FogSequentialForward.fog[12].server[0] congestionRatio 0
scalar FogSequentialForward.fog[12].server[0] totalJobs 1390499
scalar FogSequentialForward.fog[12].server[0] droppedJobsQueue 39360
scalar FogSequentialForward.fog[12].server[0] droppedJobsTimout 0
scalar FogSequentialForward.fog[12].server[0] droppedJobsSLA 873682
scalar FogSequentialForward.fog[12].server[0] droppedJobsTotal 913042
scalar FogSequentialForward.fog[13].dispatcher localJobs 1389126
scalar FogSequentialForward.fog[13].dispatcher internalJobs 1622108
scalar FogSequentialForward.fog[13].dispatcher externalJobs 6837551
scalar FogSequentialForward.fog[13].dispatcher remoteJobs 6836645
scalar FogSequentialForward.fog[13].dispatcher probeQueries 0
scalar FogSequentialForward.fog[13].dispatcher probeAnswers 0
scalar FogSequentialForward.fog[13].dispatcher droppedJobsSLA 233888
scalar FogSequentialForward.fog[13].dispatcher jobs_class_1 8459659
scalar FogSequentialForward.fog[13].dispatcher remoteJobs_class_1 6836645
scalar FogSequentialForward.fog[13].dispatcher localJobs_class_1 1389126
scalar FogSequentialForward.fog[13].dispatcher droppedJobsSLA_class_1 233888
scalar FogSequentialForward.fog[13].server[0] rho 1
scalar FogSequentialForward.fog[13].server[0] congestionRatio 0
scalar FogSequentialForward.fog[13].server[0] totalJobs 1389126
scalar FogSequentialForward.fog[13].server[0] droppedJobsQueue 39081
scalar FogSequentialForward.fog[13].server[0] droppedJobsTimout 0
scalar FogSequentialForward.fog[13].server[0] droppedJobsSLA 871475
scalar FogSequentialForward.fog[13].server[0] droppedJobsTotal 910556
scalar FogSequentialForward.fog[14].dispatcher localJobs 1389728
scalar FogSequentialForward.fog[14].dispatcher internalJobs 1625047
scalar FogSequentialForward.fog[14].dispatcher externalJobs 6839116
scalar FogSequentialForward.fog[14].dispatcher remoteJobs 6841042
scalar FogSequentialForward.fog[14].dispatcher probeQueries 0
scalar FogSequentialForward.fog[14].dispatcher probeAnswers 0
scalar FogSequentialForward.fog[14].dispatcher droppedJobsSLA 233393
scalar FogSequentialForward.fog[14].dispatcher jobs_class_1 8464163
scalar FogSequentialForward.fog[14].dispatcher remoteJobs_class_1 6841042
scalar FogSequentialForward.fog[14].dispatcher localJobs_class_1 1389728
scalar FogSequentialForward.fog[14].dispatcher droppedJobsSLA_class_1 233393
scalar FogSequentialForward.fog[14].server[0] rho 1
scalar FogSequentialForward.fog[14].server[0] congestionRatio 0
scalar FogSequentialForward.fog[14].server[0] totalJobs 1389728
scalar FogSequentialForward.fog[14].server[0] droppedJobsQueue 39033
scalar FogSequentialForward.fog[14].server[0] droppedJobsTimout 0
scalar FogSequentialForward.fog[14].server[0] droppedJobsSLA 872366
scalar FogSequentialForward.fog[14].server[0] droppedJobsTotal 911399
scalar FogSequentialForward.fog[15].dispatcher localJobs 1389178
scalar FogSequentialForward.fog[15].dispatcher internalJobs 1625342
scalar FogSequentialForward.fog[15].dispatcher externalJobs 6837854
scalar FogSequentialForward.fog[15].dispatcher remoteJobs 6840656
scalar FogSequentialForward.fog[15].dispatcher probeQueries 0
scalar FogSequentialForward.fog[15].dispatcher probeAnswers 0
scalar FogSequentialForward.fog[15].dispatcher droppedJobsSLA 233362
scalar FogSequentialForward.fog[15].dispatcher jobs_class_1 8463196
scalar FogSequentialForward.fog[15].dispatcher remoteJobs_class_1 6840656
scalar FogSequentialForward.fog[15].dispatcher localJobs_class_1 1389178
scalar FogSequentialForward.fog[15].dispatcher droppedJobsSLA_class_1 233362
scalar FogSequentialForward.fog[15].server[0] rho 1
scalar FogSequentialForward.fog[15].server[0] congestionRatio 0
scalar FogSequentialForward.fog[15].server[0] totalJobs 1389178
scalar FogSequentialForward.fog[15].server[0] droppedJobsQueue 39087
scalar FogSequentialForward.fog[15].server[0] droppedJobsTimout 0
scalar FogSequentialForward.fog[15].server[0] droppedJobsSLA 872201
scalar FogSequentialForward.fog[15].server[0] droppedJobsTotal 911288
scalar FogSequentialForward.fog[16].dispatcher localJobs 1390337
scalar FogSequentialForward.fog[16].dispatcher internalJobs 1623647
scalar FogSequentialForward.fog[16].dispatcher externalJobs 6840961
scalar FogSequentialForward.fog[16].dispatcher remoteJobs 6841015
scalar FogSequentialForward.fog[16].dispatcher probeQueries 0
scalar FogSequentialForward.fog[16].dispatcher probeAnswers 0
scalar FogSequentialForward.fog[16].dispatcher droppedJobsSLA 233256
scalar FogSequentialForward.fog[16].dispatcher jobs_class_1 8464608
scalar FogSequentialForward.fog[16].dispatcher remoteJobs_class_1 6841015
scalar FogSequentialForward.fog[16].dispatcher localJobs_class_1 1390337
scalar FogSequentialForward.fog[16].dispatcher droppedJobsSLA_class_1 233256
scalar FogSequentialForward.fog[16].server[0] rho 1
scalar FogSequentialForward.fog[16].server[0] congestionRatio 0
scalar FogSequentialForward.fog[16].server[0] totalJobs 1390337
scalar FogSequentialForward.fog[16].server[0] droppedJobsQueue 39081
scalar FogSequentialForward.fog[16].server[0] droppedJobsTimout 0
scalar FogSequentialForward.fog[16].server[0] droppedJobsSLA 873461
scalar FogSequentialForward.fog[16].server[0] droppedJobsTotal 912542
scalar FogSequentialForward.fog[17].dispatcher localJobs 1390596
scalar FogSequentialForward.fog[17].dispatcher internalJobs 1624062
scalar FogSequentialForward.fog[17].dispatcher externalJobs 6840665
scalar FogSequentialForward.fog[17].dispatcher remoteJobs 6841021
scalar FogSequentialForward.fog[17].dispatcher probeQueries 0
scalar FogSequentialForward.fog[17].dispatcher probeAnswers 0
scalar FogSequentialForward.fog[17].dispatcher droppedJobsSLA 233110
scalar FogSequentialForward.fog[17].dispatcher jobs_class_1 8464727
scalar FogSequentialForward.fog[17].dispatcher remoteJobs_class_1 6841021
scalar FogSequentialForward.fog[17].dispatcher localJobs_class_1 1390596
scalar FogSequentialForward.fog[17].dispatcher droppedJobsSLA_class_1 233110
scalar FogSequentialForward.fog[17].server[0] rho 1
scalar FogSequentialForward.fog[17].server[0] congestionRatio 0
scalar FogSequentialForward.fog[17].server[0] totalJobs 1390596
scalar FogSequentialForward.fog[17].server[0] droppedJobsQueue 39271
scalar FogSequentialForward.fog[17].server[0] droppedJobsTimout 0
scalar FogSequentialForward.fog[17].server[0] droppedJobsSLA 872458
scalar FogSequentialForward.fog[17].server[0] droppedJobsTotal 911729
scalar FogSequentialForward.fog[18].dispatcher localJobs 1389712
scalar FogSequentialForward.fog[18].dispatcher internalJobs 1626091
scalar FogSequentialForward.fog[18].dispatcher externalJobs 6839422
scalar FogSequentialForward.fog[18].dispatcher remoteJobs 6842360
scalar FogSequentialForward.fog[18].dispatcher probeQueries 0
scalar FogSequentialForward.fog[18].dispatcher probeAnswers 0
scalar FogSequentialForward.fog[18].dispatcher droppedJobsSLA 233441
scalar FogSequentialForward.fog[18].dispatcher jobs_class_1 8465513
scalar FogSequentialForward.fog[18].dispatcher remoteJobs_class_1 6842360
scalar FogSequentialForward.fog[18].dispatcher localJobs_class_1 1389712
scalar FogSequentialForward.fog[18].dispatcher droppedJobsSLA_class_1 233441
scalar FogSequentialForward.fog[18].server[0] rho 1
scalar FogSequentialForward.fog[18].server[0] congestionRatio 0
scalar FogSequentialForward.fog[18].server[0] totalJobs 1389712
scalar FogSequentialForward.fog[18].server[0] droppedJobsQueue 39303
scalar FogSequentialForward.fog[18].server[0] droppedJobsTimout 0
scalar FogSequentialForward.fog[18].server[0] droppedJobsSLA 872182
scalar FogSequentialForward.fog[18].server[0] droppedJobsTotal 911485
scalar FogSequentialForward.fog[19].dispatcher localJobs 1390427
scalar FogSequentialForward.fog[19].dispatcher internalJobs 1626361
scalar FogSequentialForward.fog[19].dispatcher externalJobs 6840535
scalar FogSequentialForward.fog[19].dispatcher remoteJobs 6843527
scalar FogSequentialForward.fog[19].dispatcher probeQueries 0
scalar FogSequentialForward.fog[19].dispatcher probeAnswers 0
scalar FogSequentialForward.fog[19].dispatcher droppedJobsSLA 232942
scalar FogSequentialForward.fog[19].dispatcher jobs_class_1 8466896
scalar FogSequentialForward.fog[19].dispatcher remoteJobs_class_1 6843527
scalar FogSequentialForward.fog[19].dispatcher localJobs_class_1 1390427
scalar FogSequentialForward.fog[19].dispatcher droppedJobsSLA_class_1 232942
scalar FogSequentialForward.fog[19].server[0] rho 0.99999988079071
scalar FogSequentialForward.fog[19].server[0] congestionRatio 0
scalar FogSequentialForward.fog[19].server[0] totalJobs 1390427
scalar FogSequentialForward.fog[19].server[0] droppedJobsQueue 39184
scalar FogSequentialForward.fog[19].server[0] droppedJobsTimout 0
scalar FogSequentialForward.fog[19].server[0] droppedJobsSLA 872823
scalar FogSequentialForward.fog[19].server[0] droppedJobsTotal 912007
scalar FogSequentialForward.fog[20].dispatcher localJobs 1389202
scalar FogSequentialForward.fog[20].dispatcher internalJobs 1622027
scalar FogSequentialForward.fog[20].dispatcher externalJobs 6839822
scalar FogSequentialForward.fog[20].dispatcher remoteJobs 6838876
scalar FogSequentialForward.fog[20].dispatcher probeQueries 0
scalar FogSequentialForward.fog[20].dispatcher probeAnswers 0
scalar FogSequentialForward.fog[20].dispatcher droppedJobsSLA 233771
scalar FogSequentialForward.fog[20].dispatcher jobs_class_1 8461849
scalar FogSequentialForward.fog[20].dispatcher remoteJobs_class_1 6838876
scalar FogSequentialForward.fog[20].dispatcher localJobs_class_1 1389202
scalar FogSequentialForward.fog[20].dispatcher droppedJobsSLA_class_1 233771
scalar FogSequentialForward.fog[20].server[0] rho 0.99999988079071
scalar FogSequentialForward.fog[20].server[0] congestionRatio 0
scalar FogSequentialForward.fog[20].server[0] totalJobs 1389202
scalar FogSequentialForward.fog[20].server[0] droppedJobsQueue 39112
scalar FogSequentialForward.fog[20].server[0] droppedJobsTimout 0
scalar FogSequentialForward.fog[20].server[0] droppedJobsSLA 872014
scalar FogSequentialForward.fog[20].server[0] droppedJobsTotal 911126
scalar FogSequentialForward.fog[21].dispatcher localJobs 1390220
scalar FogSequentialForward.fog[21].dispatcher internalJobs 1623306
scalar FogSequentialForward.fog[21].dispatcher externalJobs 6842046
scalar FogSequentialForward.fog[21].dispatcher remoteJobs 6842557
scalar FogSequentialForward.fog[21].dispatcher probeQueries 0
scalar FogSequentialForward.fog[21].dispatcher probeAnswers 0
scalar FogSequentialForward.fog[21].dispatcher droppedJobsSLA 232575
scalar FogSequentialForward.fog[21].dispatcher jobs_class_1 8465352
scalar FogSequentialForward.fog[21].dispatcher remoteJobs_class_1 6842557
scalar FogSequentialForward.fog[21].dispatcher localJobs_class_1 1390220
scalar FogSequentialForward.fog[21].dispatcher droppedJobsSLA_class_1 232575
scalar FogSequentialForward.fog[21].server[0] rho 1
scalar FogSequentialForward.fog[21].server[0] congestionRatio 0
scalar FogSequentialForward.fog[21].server[0] totalJobs 1390220
scalar FogSequentialForward.fog[21].server[0] droppedJobsQueue 39174
scalar FogSequentialForward.fog[21].server[0] droppedJobsTimout 0
scalar FogSequentialForward.fog[21].server[0] droppedJobsSLA 872619
scalar FogSequentialForward.fog[21].server[0] droppedJobsTotal 911793
scalar FogSequentialForward.fog[22].dispatcher localJobs 1388981
scalar FogSequentialForward.fog[22].dispatcher internalJobs 1621426
scalar FogSequentialForward.fog[22].dispatcher externalJobs 6837973
scalar FogSequentialForward.fog[22].dispatcher remoteJobs 6836157
scalar FogSequentialForward.fog[22].dispatcher probeQueries 0
scalar FogSequentialForward.fog[22].dispatcher probeAnswers 0
scalar FogSequentialForward.fog[22].dispatcher droppedJobsSLA 234261
scalar FogSequentialForward.fog[22].dispatcher jobs_class_1 8459399
scalar FogSequentialForward.fog[22].dispatcher remoteJobs_class_1 6836157
scalar FogSequentialForward.fog[22].dispatcher localJobs_class_1 1388981
scalar FogSequentialForward.fog[22].dispatcher droppedJobsSLA_class_1 234261
scalar FogSequentialForward.fog[22].server[0] rho 1
scalar FogSequentialForward.fog[22].server[0] congestionRatio 0
scalar FogSequentialForward.fog[22].server[0] totalJobs 1388981
scalar FogSequentialForward.fog[22].server[0] droppedJobsQueue 38899
scalar FogSequentialForward.fog[22].server[0] droppedJobsTimout 0
scalar FogSequentialForward.fog[22].server[0] droppedJobsSLA 872255
scalar FogSequentialForward.fog[22].server[0] droppedJobsTotal 911154
scalar FogSequentialForward.fog[23].dispatcher localJobs 1390076
scalar FogSequentialForward.fog[23].dispatcher internalJobs 1625103
scalar FogSequentialForward.fog[23].dispatcher externalJobs 6843939
scalar FogSequentialForward.fog[23].dispatcher remoteJobs 6845122
scalar FogSequentialForward.fog[23].dispatcher probeQueries 0
scalar FogSequentialForward.fog[23].dispatcher probeAnswers 0
scalar FogSequentialForward.fog[23].dispatcher droppedJobsSLA 233844
scalar FogSequentialForward.fog[23].dispatcher jobs_class_1 8469042
scalar FogSequentialForward.fog[23].dispatcher remoteJobs_class_1 6845122
scalar FogSequentialForward.fog[23].dispatcher localJobs_class_1 1390076
scalar FogSequentialForward.fog[23].dispatcher droppedJobsSLA_class_1 233844
scalar FogSequentialForward.fog[23].server[0] rho 1
scalar FogSequentialForward.fog[23].server[0] congestionRatio 0
scalar FogSequentialForward.fog[23].server[0] totalJobs 1390076
scalar FogSequentialForward.fog[23].server[0] droppedJobsQueue 39167
scalar FogSequentialForward.fog[23].server[0] droppedJobsTimout 0
scalar FogSequentialForward.fog[23].server[0] droppedJobsSLA 872876
scalar FogSequentialForward.fog[23].server[0] droppedJobsTotal 912043
scalar FogSequentialForward.fog[24].dispatcher localJobs 1389306
scalar FogSequentialForward.fog[24].dispatcher internalJobs 1622665
scalar FogSequentialForward.fog[24].dispatcher externalJobs 6837350
scalar FogSequentialForward.fog[24].dispatcher remoteJobs 6837485
scalar FogSequentialForward.fog[24].dispatcher probeQueries 0
scalar FogSequentialForward.fog[24].dispatcher probeAnswers 0
scalar FogSequentialForward.fog[24].dispatcher droppedJobsSLA 233224
scalar FogSequentialForward.fog[24].dispatcher jobs_class_1 8460015
scalar FogSequentialForward.fog[24].dispatcher remoteJobs_class_1 6837485
scalar FogSequentialForward.fog[24].dispatcher localJobs_class_1 1389306
scalar FogSequentialForward.fog[24].dispatcher droppedJobsSLA_class_1 233224
scalar FogSequentialForward.fog[24].server[0] rho 1
scalar FogSequentialForward.fog[24].server[0] congestionRatio 0
scalar FogSequentialForward.fog[24].server[0] totalJobs 1389306
scalar FogSequentialForward.fog[24].server[0] droppedJobsQueue 39076
scalar FogSequentialForward.fog[24].server[0] droppedJobsTimout 0
scalar FogSequentialForward.fog[24].server[0] droppedJobsSLA 872181
scalar FogSequentialForward.fog[24].server[0] droppedJobsTotal 911257
scalar FogSequentialForward.fog[25].dispatcher localJobs 1390025
scalar FogSequentialForward.fog[25].dispatcher internalJobs 1620361
scalar FogSequentialForward.fog[25].dispatcher externalJobs 6833549
scalar FogSequentialForward.fog[25].dispatcher remoteJobs 6831052
scalar FogSequentialForward.fog[25].dispatcher probeQueries 0
scalar FogSequentialForward.fog[25].dispatcher probeAnswers 0
scalar FogSequentialForward.fog[25].dispatcher droppedJobsSLA 232833
scalar FogSequentialForward.fog[25].dispatcher jobs_class_1 8453910
scalar FogSequentialForward.fog[25].dispatcher remoteJobs_class_1 6831052
scalar FogSequentialForward.fog[25].dispatcher localJobs_class_1 1390025
scalar FogSequentialForward.fog[25].dispatcher droppedJobsSLA_class_1 232833
scalar FogSequentialForward.fog[25].server[0] rho 1
scalar FogSequentialForward.fog[25].server[0] congestionRatio 0
scalar FogSequentialForward.fog[25].server[0] totalJobs 1390025
scalar FogSequentialForward.fog[25].server[0] droppedJobsQueue 39126
scalar FogSequentialForward.fog[25].server[0] droppedJobsTimout 0
scalar FogSequentialForward.fog[25].server[0] droppedJobsSLA 873085
scalar FogSequentialForward.fog[25].server[0] droppedJobsTotal 912211
scalar FogSequentialForward.fog[26].dispatcher localJobs 1389205
scalar FogSequentialForward.fog[26].dispatcher internalJobs 1624964
scalar FogSequentialForward.fog[26].dispatcher externalJobs 6838802
scalar FogSequentialForward.fog[26].dispatcher remoteJobs 6841783
scalar FogSequentialForward.fog[26].dispatcher probeQueries 0
scalar FogSequentialForward.fog[26].dispatcher probeAnswers 0
scalar FogSequentialForward.fog[26].dispatcher droppedJobsSLA 232778
scalar FogSequentialForward.fog[26].dispatcher jobs_class_1 8463766
scalar FogSequentialForward.fog[26].dispatcher remoteJobs_class_1 6841783
scalar FogSequentialForward.fog[26].dispatcher localJobs_class_1 1389205
scalar FogSequentialForward.fog[26].dispatcher droppedJobsSLA_class_1 232778
scalar FogSequentialForward.fog[26].server[0] rho 1
scalar FogSequentialForward.fog[26].server[0] congestionRatio 0
scalar FogSequentialForward.fog[26].server[0] totalJobs 1389205
scalar FogSequentialForward.fog[26].server[0] droppedJobsQueue 38976
scalar FogSequentialForward.fog[26].server[0] droppedJobsTimout 0
scalar FogSequentialForward.fog[26].server[0] droppedJobsSLA 872069
scalar FogSequentialForward.fog[26].server[0] droppedJobsTotal 911045
scalar FogSequentialForward.fog[27].dispatcher localJobs 1389789
scalar FogSequentialForward.fog[27].dispatcher internalJobs 1622363
scalar FogSequentialForward.fog[27].dispatcher externalJobs 6836680
scalar FogSequentialForward.fog[27].dispatcher remoteJobs 6836033
scalar FogSequentialForward.fog[27].dispatcher probeQueries 0
scalar FogSequentialForward.fog[27].dispatcher probeAnswers 0
scalar FogSequentialForward.fog[27].dispatcher droppedJobsSLA 233221
scalar FogSequentialForward.fog[27].dispatcher jobs_class_1 8459043
scalar FogSequentialForward.fog[27].dispatcher remoteJobs_class_1 6836033
scalar FogSequentialForward.fog[27].dispatcher localJobs_class_1 1389789
scalar FogSequentialForward.fog[27].dispatcher droppedJobsSLA_class_1 233221
scalar FogSequentialForward.fog[27].server[0] rho 1
scalar FogSequentialForward.fog[27].server[0] congestionRatio 0
scalar FogSequentialForward.fog[27].server[0] totalJobs 1389789
scalar FogSequentialForward.fog[27].server[0] droppedJobsQueue 38970
scalar FogSequentialForward.fog[27].server[0] droppedJobsTimout 0
scalar FogSequentialForward.fog[27].server[0] droppedJobsSLA 872868
scalar FogSequentialForward.fog[27].server[0] droppedJobsTotal 911838
scalar FogSequentialForward.fog[28].dispatcher localJobs 1390233
scalar FogSequentialForward.fog[28].dispatcher internalJobs 1622019
scalar FogSequentialForward.fog[28].dispatcher externalJobs 6842262
scalar FogSequentialForward.fog[28].dispatcher remoteJobs 6839428
scalar FogSequentialForward.fog[28].dispatcher probeQueries 0
scalar FogSequentialForward.fog[28].dispatcher probeAnswers 0
scalar FogSequentialForward.fog[28].dispatcher droppedJobsSLA 234620
scalar FogSequentialForward.fog[28].dispatcher jobs_class_1 8464281
scalar FogSequentialForward.fog[28].dispatcher remoteJobs_class_1 6839428
scalar FogSequentialForward.fog[28].dispatcher localJobs_class_1 1390233
scalar FogSequentialForward.fog[28].dispatcher droppedJobsSLA_class_1 234620
scalar FogSequentialForward.fog[28].server[0] rho 1
scalar FogSequentialForward.fog[28].server[0] congestionRatio 0
scalar FogSequentialForward.fog[28].server[0] totalJobs 1390233
scalar FogSequentialForward.fog[28].server[0] droppedJobsQueue 39137
scalar FogSequentialForward.fog[28].server[0] droppedJobsTimout 0
scalar FogSequentialForward.fog[28].server[0] droppedJobsSLA 873204
scalar FogSequentialForward.fog[28].server[0] droppedJobsTotal 912341
scalar FogSequentialForward.fog[29].dispatcher localJobs 1389603
scalar FogSequentialForward.fog[29].dispatcher internalJobs 1621347
scalar FogSequentialForward.fog[29].dispatcher externalJobs 6836163
scalar FogSequentialForward.fog[29].dispatcher remoteJobs 6834677
scalar FogSequentialForward.fog[29].dispatcher probeQueries 0
scalar FogSequentialForward.fog[29].dispatcher probeAnswers 0
scalar FogSequentialForward.fog[29].dispatcher droppedJobsSLA 233230
scalar FogSequentialForward.fog[29].dispatcher jobs_class_1 8457510
scalar FogSequentialForward.fog[29].dispatcher remoteJobs_class_1 6834677
scalar FogSequentialForward.fog[29].dispatcher localJobs_class_1 1389603
scalar FogSequentialForward.fog[29].dispatcher droppedJobsSLA_class_1 233230
scalar FogSequentialForward.fog[29].server[0] rho 1
scalar FogSequentialForward.fog[29].server[0] congestionRatio 0
scalar FogSequentialForward.fog[29].server[0] totalJobs 1389603
scalar FogSequentialForward.fog[29].server[0] droppedJobsQueue 39137
scalar FogSequentialForward.fog[29].server[0] droppedJobsTimout 0
scalar FogSequentialForward.fog[29].server[0] droppedJobsSLA 872739
scalar FogSequentialForward.fog[29].server[0] droppedJobsTotal 911876
scalar FogSequentialForward.fog[30].dispatcher localJobs 1391491
scalar FogSequentialForward.fog[30].dispatcher internalJobs 1622213
scalar FogSequentialForward.fog[30].dispatcher externalJobs 6842496
scalar FogSequentialForward.fog[30].dispatcher remoteJobs 6839619
scalar FogSequentialForward.fog[30].dispatcher probeQueries 0
scalar FogSequentialForward.fog[30].dispatcher probeAnswers 0
scalar FogSequentialForward.fog[30].dispatcher droppedJobsSLA 233599
scalar FogSequentialForward.fog[30].dispatcher jobs_class_1 8464709
scalar FogSequentialForward.fog[30].dispatcher remoteJobs_class_1 6839619
scalar FogSequentialForward.fog[30].dispatcher localJobs_class_1 1391491
scalar FogSequentialForward.fog[30].dispatcher droppedJobsSLA_class_1 233599
scalar FogSequentialForward.fog[30].server[0] rho 1
scalar FogSequentialForward.fog[30].server[0] congestionRatio 0
scalar FogSequentialForward.fog[30].server[0] totalJobs 1391491
scalar FogSequentialForward.fog[30].server[0] droppedJobsQueue 39267
scalar FogSequentialForward.fog[30].server[0] droppedJobsTimout 0
scalar FogSequentialForward.fog[30].server[0] droppedJobsSLA 873388
scalar FogSequentialForward.fog[30].server[0] droppedJobsTotal 912655
scalar FogSequentialForward.fog[31].dispatcher localJobs 1390831
scalar FogSequentialForward.fog[31].dispatcher internalJobs 1623263
scalar FogSequentialForward.fog[31].dispatcher externalJobs 6840123
scalar FogSequentialForward.fog[31].dispatcher remoteJobs 6839665
scalar FogSequentialForward.fog[31].dispatcher probeQueries 0
scalar FogSequentialForward.fog[31].dispatcher probeAnswers 0
scalar FogSequentialForward.fog[31].dispatcher droppedJobsSLA 232890
scalar FogSequentialForward.fog[31].dispatcher jobs_class_1 8463386
scalar FogSequentialForward.fog[31].dispatcher remoteJobs_class_1 6839665
scalar FogSequentialForward.fog[31].dispatcher localJobs_class_1 1390831
scalar FogSequentialForward.fog[31].dispatcher droppedJobsSLA_class_1 232890
scalar FogSequentialForward.fog[31].server[0] rho 1
scalar FogSequentialForward.fog[31].server[0] congestionRatio 0
scalar FogSequentialForward.fog[31].server[0] totalJobs 1390831
scalar FogSequentialForward.fog[31].server[0] droppedJobsQueue 39339
scalar FogSequentialForward.fog[31].server[0] droppedJobsTimout 0
scalar FogSequentialForward.fog[31].server[0] droppedJobsSLA 873782
scalar FogSequentialForward.fog[31].server[0] droppedJobsTotal 913121
scalar FogSequentialForward.fog[32].dispatcher localJobs 1389790
scalar FogSequentialForward.fog[32].dispatcher internalJobs 1623407
scalar FogSequentialForward.fog[32].dispatcher externalJobs 6833824
scalar FogSequentialForward.fog[32].dispatcher remoteJobs 6834374
scalar FogSequentialForward.fog[32].dispatcher probeQueries 0
scalar FogSequentialForward.fog[32].dispatcher probeAnswers 0
scalar FogSequentialForward.fog[32].dispatcher droppedJobsSLA 233067
scalar FogSequentialForward.fog[32].dispatcher jobs_class_1 8457231
scalar FogSequentialForward.fog[32].dispatcher remoteJobs_class_1 6834374
scalar FogSequentialForward.fog[32].dispatcher localJobs_class_1 1389790
scalar FogSequentialForward.fog[32].dispatcher droppedJobsSLA_class_1 233067
scalar FogSequentialForward.fog[32].server[0] rho 1
scalar FogSequentialForward.fog[32].server[0] congestionRatio 0
scalar FogSequentialForward.fog[32].server[0] totalJobs 1389790
scalar FogSequentialForward.fog[32].server[0] droppedJobsQueue 38908
scalar FogSequentialForward.fog[32].server[0] droppedJobsTimout 0
scalar FogSequentialForward.fog[32].server[0] droppedJobsSLA 872324
scalar FogSequentialForward.fog[32].server[0] droppedJobsTotal 911232
scalar FogSequentialForward.fog[33].dispatcher localJobs 1388337
scalar FogSequentialForward.fog[33].dispatcher internalJobs 1623895
scalar FogSequentialForward.fog[33].dispatcher externalJobs 6836591
scalar FogSequentialForward.fog[33].dispatcher remoteJobs 6839326
scalar FogSequentialForward.fog[33].dispatcher probeQueries 0
scalar FogSequentialForward.fog[33].dispatcher probeAnswers 0
scalar FogSequentialForward.fog[33].dispatcher droppedJobsSLA 232823
scalar FogSequentialForward.fog[33].dispatcher jobs_class_1 8460486
scalar FogSequentialForward.fog[33].dispatcher remoteJobs_class_1 6839326
scalar FogSequentialForward.fog[33].dispatcher localJobs_class_1 1388337
scalar FogSequentialForward.fog[33].dispatcher droppedJobsSLA_class_1 232823
scalar FogSequentialForward.fog[33].server[0] rho 0.99999994039536
scalar FogSequentialForward.fog[33].server[0] congestionRatio 0
scalar FogSequentialForward.fog[33].server[0] totalJobs 1388337
scalar FogSequentialForward.fog[33].server[0] droppedJobsQueue 38763
scalar FogSequentialForward.fog[33].server[0] droppedJobsTimout 0
scalar FogSequentialForward.fog[33].server[0] droppedJobsSLA 870988
scalar FogSequentialForward.fog[33].server[0] droppedJobsTotal 909751
scalar FogSequentialForward.fog[34].dispatcher localJobs 1390494
scalar FogSequentialForward.fog[34].dispatcher internalJobs 1623221
scalar FogSequentialForward.fog[34].dispatcher externalJobs 6842111
scalar FogSequentialForward.fog[34].dispatcher remoteJobs 6841596
scalar FogSequentialForward.fog[34].dispatcher probeQueries 0
scalar FogSequentialForward.fog[34].dispatcher probeAnswers 0
scalar FogSequentialForward.fog[34].dispatcher droppedJobsSLA 233242
scalar FogSequentialForward.fog[34].dispatcher jobs_class_1 8465332
scalar FogSequentialForward.fog[34].dispatcher remoteJobs_class_1 6841596
scalar FogSequentialForward.fog[34].dispatcher localJobs_class_1 1390494
scalar FogSequentialForward.fog[34].dispatcher droppedJobsSLA_class_1 233242
scalar FogSequentialForward.fog[34].server[0] rho 1
scalar FogSequentialForward.fog[34].server[0] congestionRatio 0
scalar FogSequentialForward.fog[34].server[0] totalJobs 1390494
scalar FogSequentialForward.fog[34].server[0] droppedJobsQueue 39299
scalar FogSequentialForward.fog[34].server[0] droppedJobsTimout 0
scalar FogSequentialForward.fog[34].server[0] droppedJobsSLA 872947
scalar FogSequentialForward.fog[34].server[0] droppedJobsTotal 912246
scalar FogSequentialForward.fog[35].dispatcher localJobs 1389777
scalar FogSequentialForward.fog[35].dispatcher internalJobs 1620968
scalar FogSequentialForward.fog[35].dispatcher externalJobs 6838732
scalar FogSequentialForward.fog[35].dispatcher remoteJobs 6836274
scalar FogSequentialForward.fog[35].dispatcher probeQueries 0
scalar FogSequentialForward.fog[35].dispatcher probeAnswers 0
scalar FogSequentialForward.fog[35].dispatcher droppedJobsSLA 233649
scalar FogSequentialForward.fog[35].dispatcher jobs_class_1 8459700
scalar FogSequentialForward.fog[35].dispatcher remoteJobs_class_1 6836274
scalar FogSequentialForward.fog[35].dispatcher localJobs_class_1 1389777
scalar FogSequentialForward.fog[35].dispatcher droppedJobsSLA_class_1 233649
scalar FogSequentialForward.fog[35].server[0] rho 1
scalar FogSequentialForward.fog[35].server[0] congestionRatio 0
scalar FogSequentialForward.fog[35].server[0] totalJobs 1389777
scalar FogSequentialForward.fog[35].server[0] droppedJobsQueue 39149
scalar FogSequentialForward.fog[35].server[0] droppedJobsTimout 0
scalar FogSequentialForward.fog[35].server[0] droppedJobsSLA 872484
scalar FogSequentialForward.fog[35].server[0] droppedJobsTotal 911633
scalar FogSequentialForward.fog[36].dispatcher localJobs 1389977
scalar FogSequentialForward.fog[36].dispatcher internalJobs 1625680
scalar FogSequentialForward.fog[36].dispatcher externalJobs 6837169
scalar FogSequentialForward.fog[36].dispatcher remoteJobs 6838683
scalar FogSequentialForward.fog[36].dispatcher probeQueries 0
scalar FogSequentialForward.fog[36].dispatcher probeAnswers 0
scalar FogSequentialForward.fog[36].dispatcher droppedJobsSLA 234189
scalar FogSequentialForward.fog[36].dispatcher jobs_class_1 8462849
scalar FogSequentialForward.fog[36].dispatcher remoteJobs_class_1 6838683
scalar FogSequentialForward.fog[36].dispatcher localJobs_class_1 1389977
scalar FogSequentialForward.fog[36].dispatcher droppedJobsSLA_class_1 234189
scalar FogSequentialForward.fog[36].server[0] rho 1
scalar FogSequentialForward.fog[36].server[0] congestionRatio 0
scalar FogSequentialForward.fog[36].server[0] totalJobs 1389977
scalar FogSequentialForward.fog[36].server[0] droppedJobsQueue 39342
scalar FogSequentialForward.fog[36].server[0] droppedJobsTimout 0
scalar FogSequentialForward.fog[36].server[0] droppedJobsSLA 871906
scalar FogSequentialForward.fog[36].server[0] droppedJobsTotal 911248
scalar FogSequentialForward.fog[37].dispatcher localJobs 1389282
scalar FogSequentialForward.fog[37].dispatcher internalJobs 1625826
scalar FogSequentialForward.fog[37].dispatcher externalJobs 6831925
scalar FogSequentialForward.fog[37].dispatcher remoteJobs 6835122
scalar FogSequentialForward.fog[37].dispatcher probeQueries 0
scalar FogSequentialForward.fog[37].dispatcher probeAnswers 0
scalar FogSequentialForward.fog[37].dispatcher droppedJobsSLA 233347
scalar FogSequentialForward.fog[37].dispatcher jobs_class_1 8457751
scalar FogSequentialForward.fog[37].dispatcher remoteJobs_class_1 6835122
scalar FogSequentialForward.fog[37].dispatcher localJobs_class_1 1389282
scalar FogSequentialForward.fog[37].dispatcher droppedJobsSLA_class_1 233347
scalar FogSequentialForward.fog[37].server[0] rho 0.99999976158142
scalar FogSequentialForward.fog[37].server[0] congestionRatio 0
scalar FogSequentialForward.fog[37].server[0] totalJobs 1389282
scalar FogSequentialForward.fog[37].server[0] droppedJobsQueue 39097
scalar FogSequentialForward.fog[37].server[0] droppedJobsTimout 0
scalar FogSequentialForward.fog[37].server[0] droppedJobsSLA 871765
scalar FogSequentialForward.fog[37].server[0] droppedJobsTotal 910862
scalar FogSequentialForward.fog[38].dispatcher localJobs 1389157
scalar FogSequentialForward.fog[38].dispatcher internalJobs 1621985
scalar FogSequentialForward.fog[38].dispatcher externalJobs 6839239
scalar FogSequentialForward.fog[38].dispatcher remoteJobs 6837938
scalar FogSequentialForward.fog[38].dispatcher probeQueries 0
scalar FogSequentialForward.fog[38].dispatcher probeAnswers 0
scalar FogSequentialForward.fog[38].dispatcher droppedJobsSLA 234129
scalar FogSequentialForward.fog[38].dispatcher jobs_class_1 8461224
scalar FogSequentialForward.fog[38].dispatcher remoteJobs_class_1 6837938
scalar FogSequentialForward.fog[38].dispatcher localJobs_class_1 1389157
scalar FogSequentialForward.fog[38].dispatcher droppedJobsSLA_class_1 234129
scalar FogSequentialForward.fog[38].server[0] rho 1
scalar FogSequentialForward.fog[38].server[0] congestionRatio 0
scalar FogSequentialForward.fog[38].server[0] totalJobs 1389157
scalar FogSequentialForward.fog[38].server[0] droppedJobsQueue 38920
scalar FogSequentialForward.fog[38].server[0] droppedJobsTimout 0
scalar FogSequentialForward.fog[38].server[0] droppedJobsSLA 872115
scalar FogSequentialForward.fog[38].server[0] droppedJobsTotal 911035
scalar FogSequentialForward.fog[39].dispatcher localJobs 1390155
scalar FogSequentialForward.fog[39].dispatcher internalJobs 1622653
scalar FogSequentialForward.fog[39].dispatcher externalJobs 6837017
scalar FogSequentialForward.fog[39].dispatcher remoteJobs 6836567
scalar FogSequentialForward.fog[39].dispatcher probeQueries 0
scalar FogSequentialForward.fog[39].dispatcher probeAnswers 0
scalar FogSequentialForward.fog[39].dispatcher droppedJobsSLA 232948
scalar FogSequentialForward.fog[39].dispatcher jobs_class_1 8459670
scalar FogSequentialForward.fog[39].dispatcher remoteJobs_class_1 6836567
scalar FogSequentialForward.fog[39].dispatcher localJobs_class_1 1390155
scalar FogSequentialForward.fog[39].dispatcher droppedJobsSLA_class_1 232948
scalar FogSequentialForward.fog[39].server[0] rho 1
scalar FogSequentialForward.fog[39].server[0] congestionRatio 0
scalar FogSequentialForward.fog[39].server[0] totalJobs 1390155
scalar FogSequentialForward.fog[39].server[0] droppedJobsQueue 39226
scalar FogSequentialForward.fog[39].server[0] droppedJobsTimout 0
scalar FogSequentialForward.fog[39].server[0] droppedJobsSLA 873236
scalar FogSequentialForward.fog[39].server[0] droppedJobsTotal 912462
scalar FogSequentialForward.fog[40].dispatcher localJobs 1390373
scalar FogSequentialForward.fog[40].dispatcher internalJobs 1623276
scalar FogSequentialForward.fog[40].dispatcher externalJobs 6835363
scalar FogSequentialForward.fog[40].dispatcher remoteJobs 6834527
scalar FogSequentialForward.fog[40].dispatcher probeQueries 0
scalar FogSequentialForward.fog[40].dispatcher probeAnswers 0
scalar FogSequentialForward.fog[40].dispatcher droppedJobsSLA 233739
scalar FogSequentialForward.fog[40].dispatcher jobs_class_1 8458639
scalar FogSequentialForward.fog[40].dispatcher remoteJobs_class_1 6834527
scalar FogSequentialForward.fog[40].dispatcher localJobs_class_1 1390373
scalar FogSequentialForward.fog[40].dispatcher droppedJobsSLA_class_1 233739
scalar FogSequentialForward.fog[40].server[0] rho 1
scalar FogSequentialForward.fog[40].server[0] congestionRatio 0
scalar FogSequentialForward.fog[40].server[0] totalJobs 1390373
scalar FogSequentialForward.fog[40].server[0] droppedJobsQueue 39008
scalar FogSequentialForward.fog[40].server[0] droppedJobsTimout 0
scalar FogSequentialForward.fog[40].server[0] droppedJobsSLA 873253
scalar FogSequentialForward.fog[40].server[0] droppedJobsTotal 912261
scalar FogSequentialForward.fog[41].dispatcher localJobs 1390796
scalar FogSequentialForward.fog[41].dispatcher internalJobs 1624881
scalar FogSequentialForward.fog[41].dispatcher externalJobs 6837728
scalar FogSequentialForward.fog[41].dispatcher remoteJobs 6838868
scalar FogSequentialForward.fog[41].dispatcher probeQueries 0
scalar FogSequentialForward.fog[41].dispatcher probeAnswers 0
scalar FogSequentialForward.fog[41].dispatcher droppedJobsSLA 232945
scalar FogSequentialForward.fog[41].dispatcher jobs_class_1 8462609
scalar FogSequentialForward.fog[41].dispatcher remoteJobs_class_1 6838868
scalar FogSequentialForward.fog[41].dispatcher localJobs_class_1 1390796
scalar FogSequentialForward.fog[41].dispatcher droppedJobsSLA_class_1 232945
scalar FogSequentialForward.fog[41].server[0] rho 1
scalar FogSequentialForward.fog[41].server[0] congestionRatio 0
scalar FogSequentialForward.fog[41].server[0] totalJobs 1390796
scalar FogSequentialForward.fog[41].server[0] droppedJobsQueue 39069
scalar FogSequentialForward.fog[41].server[0] droppedJobsTimout 0
scalar FogSequentialForward.fog[41].server[0] droppedJobsSLA 873163
scalar FogSequentialForward.fog[41].server[0] droppedJobsTotal 912232
scalar FogSequentialForward.fog[42].dispatcher localJobs 1390190
scalar FogSequentialForward.fog[42].dispatcher internalJobs 1622975
scalar FogSequentialForward.fog[42].dispatcher externalJobs 6838183
scalar FogSequentialForward.fog[42].dispatcher remoteJobs 6837155
scalar FogSequentialForward.fog[42].dispatcher probeQueries 0
scalar FogSequentialForward.fog[42].dispatcher probeAnswers 0
scalar FogSequentialForward.fog[42].dispatcher droppedJobsSLA 233813
scalar FogSequentialForward.fog[42].dispatcher jobs_class_1 8461158
scalar FogSequentialForward.fog[42].dispatcher remoteJobs_class_1 6837155
scalar FogSequentialForward.fog[42].dispatcher localJobs_class_1 1390190
scalar FogSequentialForward.fog[42].dispatcher droppedJobsSLA_class_1 233813
scalar FogSequentialForward.fog[42].server[0] rho 1
scalar FogSequentialForward.fog[42].server[0] congestionRatio 0
scalar FogSequentialForward.fog[42].server[0] totalJobs 1390190
scalar FogSequentialForward.fog[42].server[0] droppedJobsQueue 39337
scalar FogSequentialForward.fog[42].server[0] droppedJobsTimout 0
scalar FogSequentialForward.fog[42].server[0] droppedJobsSLA 872682
scalar FogSequentialForward.fog[42].server[0] droppedJobsTotal 912019
scalar FogSequentialForward.fog[43].dispatcher localJobs 1390058
scalar FogSequentialForward.fog[43].dispatcher internalJobs 1625541
scalar FogSequentialForward.fog[43].dispatcher externalJobs 6839575
scalar FogSequentialForward.fog[43].dispatcher remoteJobs 6841871
scalar FogSequentialForward.fog[43].dispatcher probeQueries 0
scalar FogSequentialForward.fog[43].dispatcher probeAnswers 0
scalar FogSequentialForward.fog[43].dispatcher droppedJobsSLA 233187
scalar FogSequentialForward.fog[43].dispatcher jobs_class_1 8465116
scalar FogSequentialForward.fog[43].dispatcher remoteJobs_class_1 6841871
scalar FogSequentialForward.fog[43].dispatcher localJobs_class_1 1390058
scalar FogSequentialForward.fog[43].dispatcher droppedJobsSLA_class_1 233187
scalar FogSequentialForward.fog[43].server[0] rho 1
scalar FogSequentialForward.fog[43].server[0] congestionRatio 0
scalar FogSequentialForward.fog[43].server[0] totalJobs 1390058
scalar FogSequentialForward.fog[43].server[0] droppedJobsQueue 39087
scalar FogSequentialForward.fog[43].server[0] droppedJobsTimout 0
scalar FogSequentialForward.fog[43].server[0] droppedJobsSLA 872631
scalar FogSequentialForward.fog[43].server[0] droppedJobsTotal 911718
scalar FogSequentialForward.fog[44].dispatcher localJobs 1389745
scalar FogSequentialForward.fog[44].dispatcher internalJobs 1625018
scalar FogSequentialForward.fog[44].dispatcher externalJobs 6837677
scalar FogSequentialForward.fog[44].dispatcher remoteJobs 6839240
scalar FogSequentialForward.fog[44].dispatcher probeQueries 0
scalar FogSequentialForward.fog[44].dispatcher probeAnswers 0
scalar FogSequentialForward.fog[44].dispatcher droppedJobsSLA 233710
scalar FogSequentialForward.fog[44].dispatcher jobs_class_1 8462695
scalar FogSequentialForward.fog[44].dispatcher remoteJobs_class_1 6839240
scalar FogSequentialForward.fog[44].dispatcher localJobs_class_1 1389745
scalar FogSequentialForward.fog[44].dispatcher droppedJobsSLA_class_1 233710
scalar FogSequentialForward.fog[44].server[0] rho 1
scalar FogSequentialForward.fog[44].server[0] congestionRatio 0
scalar FogSequentialForward.fog[44].server[0] totalJobs 1389745
scalar FogSequentialForward.fog[44].server[0] droppedJobsQueue 39171
scalar FogSequentialForward.fog[44].server[0] droppedJobsTimout 0
scalar FogSequentialForward.fog[44].server[0] droppedJobsSLA 872452
scalar FogSequentialForward.fog[44].server[0] droppedJobsTotal 911623
scalar FogSequentialForward.fog[45].dispatcher localJobs 1389554
scalar FogSequentialForward.fog[45].dispatcher internalJobs 1623403
scalar FogSequentialForward.fog[45].dispatcher externalJobs 6838528
scalar FogSequentialForward.fog[45].dispatcher remoteJobs 6838795
scalar FogSequentialForward.fog[45].dispatcher probeQueries 0
scalar FogSequentialForward.fog[45].dispatcher probeAnswers 0
scalar FogSequentialForward.fog[45].dispatcher droppedJobsSLA 233582
scalar FogSequentialForward.fog[45].dispatcher jobs_class_1 8461931
scalar FogSequentialForward.fog[45].dispatcher remoteJobs_class_1 6838795
scalar FogSequentialForward.fog[45].dispatcher localJobs_class_1 1389554
scalar FogSequentialForward.fog[45].dispatcher droppedJobsSLA_class_1 233582
scalar FogSequentialForward.fog[45].server[0] rho 1
scalar FogSequentialForward.fog[45].server[0] congestionRatio 0
scalar FogSequentialForward.fog[45].server[0] totalJobs 1389554
scalar FogSequentialForward.fog[45].server[0] droppedJobsQueue 39005
scalar FogSequentialForward.fog[45].server[0] droppedJobsTimout 0
scalar FogSequentialForward.fog[45].server[0] droppedJobsSLA 872443
scalar FogSequentialForward.fog[45].server[0] droppedJobsTotal 911448
scalar FogSequentialForward.fog[46].dispatcher localJobs 1389501
scalar FogSequentialForward.fog[46].dispatcher internalJobs 1620064
scalar FogSequentialForward.fog[46].dispatcher externalJobs 6833992
scalar FogSequentialForward.fog[46].dispatcher remoteJobs 6830807
scalar FogSequentialForward.fog[46].dispatcher probeQueries 0
scalar FogSequentialForward.fog[46].dispatcher probeAnswers 0
scalar FogSequentialForward.fog[46].dispatcher droppedJobsSLA 233748
scalar FogSequentialForward.fog[46].dispatcher jobs_class_1 8454056
scalar FogSequentialForward.fog[46].dispatcher remoteJobs_class_1 6830807
scalar FogSequentialForward.fog[46].dispatcher localJobs_class_1 1389501
scalar FogSequentialForward.fog[46].dispatcher droppedJobsSLA_class_1 233748
scalar FogSequentialForward.fog[46].server[0] rho 0.99999994039536
scalar FogSequentialForward.fog[46].server[0] congestionRatio 0
scalar FogSequentialForward.fog[46].server[0] totalJobs 1389501
scalar FogSequentialForward.fog[46].server[0] droppedJobsQueue 38999
scalar FogSequentialForward.fog[46].server[0] droppedJobsTimout 0
scalar FogSequentialForward.fog[46].server[0] droppedJobsSLA 873186
scalar FogSequentialForward.fog[46].server[0] droppedJobsTotal 912185
scalar FogSequentialForward.fog[47].dispatcher localJobs 1390228
scalar FogSequentialForward.fog[47].dispatcher internalJobs 1621529
scalar FogSequentialForward.fog[47].dispatcher externalJobs 6838872
scalar FogSequentialForward.fog[47].dispatcher remoteJobs 6836140
scalar FogSequentialForward.fog[47].dispatcher probeQueries 0
scalar FogSequentialForward.fog[47].dispatcher probeAnswers 0
scalar FogSequentialForward.fog[47].dispatcher droppedJobsSLA 234033
scalar FogSequentialForward.fog[47].dispatcher jobs_class_1 8460401
scalar FogSequentialForward.fog[47].dispatcher remoteJobs_class_1 6836140
scalar FogSequentialForward.fog[47].dispatcher localJobs_class_1 1390228
scalar FogSequentialForward.fog[47].dispatcher droppedJobsSLA_class_1 234033
scalar FogSequentialForward.fog[47].server[0] rho 1
scalar FogSequentialForward.fog[47].server[0] congestionRatio 0
scalar FogSequentialForward.fog[47].server[0] totalJobs 1390228
scalar FogSequentialForward.fog[47].server[0] droppedJobsQueue 39150
scalar FogSequentialForward.fog[47].server[0] droppedJobsTimout 0
scalar FogSequentialForward.fog[47].server[0] droppedJobsSLA 872971
scalar FogSequentialForward.fog[47].server[0] droppedJobsTotal 912121
scalar FogSequentialForward.fog[48].dispatcher localJobs 1389311
scalar FogSequentialForward.fog[48].dispatcher internalJobs 1622285
scalar FogSequentialForward.fog[48].dispatcher externalJobs 6834484
scalar FogSequentialForward.fog[48].dispatcher remoteJobs 6833396
scalar FogSequentialForward.fog[48].dispatcher probeQueries 0
scalar FogSequentialForward.fog[48].dispatcher probeAnswers 0
scalar FogSequentialForward.fog[48].dispatcher droppedJobsSLA 234062
scalar FogSequentialForward.fog[48].dispatcher jobs_class_1 8456769
scalar FogSequentialForward.fog[48].dispatcher remoteJobs_class_1 6833396
scalar FogSequentialForward.fog[48].dispatcher localJobs_class_1 1389311
scalar FogSequentialForward.fog[48].dispatcher droppedJobsSLA_class_1 234062
scalar FogSequentialForward.fog[48].server[0] rho 1
scalar FogSequentialForward.fog[48].server[0] congestionRatio 0
scalar FogSequentialForward.fog[48].server[0] totalJobs 1389311
scalar FogSequentialForward.fog[48].server[0] droppedJobsQueue 39092
scalar FogSequentialForward.fog[48].server[0] droppedJobsTimout 0
scalar FogSequentialForward.fog[48].server[0] droppedJobsSLA 872007
scalar FogSequentialForward.fog[48].server[0] droppedJobsTotal 911099
scalar FogSequentialForward.fog[49].dispatcher localJobs 1389881
scalar FogSequentialForward.fog[49].dispatcher internalJobs 1622129
scalar FogSequentialForward.fog[49].dispatcher externalJobs 6837943
scalar FogSequentialForward.fog[49].dispatcher remoteJobs 6836672
scalar FogSequentialForward.fog[49].dispatcher probeQueries 0
scalar FogSequentialForward.fog[49].dispatcher probeAnswers 0
scalar FogSequentialForward.fog[49].dispatcher droppedJobsSLA 233519
scalar FogSequentialForward.fog[49].dispatcher jobs_class_1 8460072
scalar FogSequentialForward.fog[49].dispatcher remoteJobs_class_1 6836672
scalar FogSequentialForward.fog[49].dispatcher localJobs_class_1 1389881
scalar FogSequentialForward.fog[49].dispatcher droppedJobsSLA_class_1 233519
scalar FogSequentialForward.fog[49].server[0] rho 0.99999976158142
scalar FogSequentialForward.fog[49].server[0] congestionRatio 0
scalar FogSequentialForward.fog[49].server[0] totalJobs 1389881
scalar FogSequentialForward.fog[49].server[0] droppedJobsQueue 39017
scalar FogSequentialForward.fog[49].server[0] droppedJobsTimout 0
scalar FogSequentialForward.fog[49].server[0] droppedJobsSLA 872142
scalar FogSequentialForward.fog[49].server[0] droppedJobsTotal 911159
scalar FogSequentialForward.fog[50].dispatcher localJobs 1390112
scalar FogSequentialForward.fog[50].dispatcher internalJobs 1622701
scalar FogSequentialForward.fog[50].dispatcher externalJobs 6838642
scalar FogSequentialForward.fog[50].dispatcher remoteJobs 6837549
scalar FogSequentialForward.fog[50].dispatcher probeQueries 0
scalar FogSequentialForward.fog[50].dispatcher probeAnswers 0
scalar FogSequentialForward.fog[50].dispatcher droppedJobsSLA 233682
scalar FogSequentialForward.fog[50].dispatcher jobs_class_1 8461343
scalar FogSequentialForward.fog[50].dispatcher remoteJobs_class_1 6837549
scalar FogSequentialForward.fog[50].dispatcher localJobs_class_1 1390112
scalar FogSequentialForward.fog[50].dispatcher droppedJobsSLA_class_1 233682
scalar FogSequentialForward.fog[50].server[0] rho 1
scalar FogSequentialForward.fog[50].server[0] congestionRatio 0
scalar FogSequentialForward.fog[50].server[0] totalJobs 1390112
scalar FogSequentialForward.fog[50].server[0] droppedJobsQueue 39219
scalar FogSequentialForward.fog[50].server[0] droppedJobsTimout 0
scalar FogSequentialForward.fog[50].server[0] droppedJobsSLA 872997
scalar FogSequentialForward.fog[50].server[0] droppedJobsTotal 912216
scalar FogSequentialForward.fog[51].dispatcher localJobs 1389788
scalar FogSequentialForward.fog[51].dispatcher internalJobs 1622322
scalar FogSequentialForward.fog[51].dispatcher externalJobs 6837460
scalar FogSequentialForward.fog[51].dispatcher remoteJobs 6836603
scalar FogSequentialForward.fog[51].dispatcher probeQueries 0
scalar FogSequentialForward.fog[51].dispatcher probeAnswers 0
scalar FogSequentialForward.fog[51].dispatcher droppedJobsSLA 233391
scalar FogSequentialForward.fog[51].dispatcher jobs_class_1 8459782
scalar FogSequentialForward.fog[51].dispatcher remoteJobs_class_1 6836603
scalar FogSequentialForward.fog[51].dispatcher localJobs_class_1 1389788
scalar FogSequentialForward.fog[51].dispatcher droppedJobsSLA_class_1 233391
scalar FogSequentialForward.fog[51].server[0] rho 0.99999874830246
scalar FogSequentialForward.fog[51].server[0] congestionRatio 0
scalar FogSequentialForward.fog[51].server[0] totalJobs 1389788
scalar FogSequentialForward.fog[51].server[0] droppedJobsQueue 39290
scalar FogSequentialForward.fog[51].server[0] droppedJobsTimout 0
scalar FogSequentialForward.fog[51].server[0] droppedJobsSLA 872472
scalar FogSequentialForward.fog[51].server[0] droppedJobsTotal 911762
scalar FogSequentialForward.fog[52].dispatcher localJobs 1390233
scalar FogSequentialForward.fog[52].dispatcher internalJobs 1621583
scalar FogSequentialForward.fog[52].dispatcher externalJobs 6842430
scalar FogSequentialForward.fog[52].dispatcher remoteJobs 6839764
scalar FogSequentialForward.fog[52].dispatcher probeQueries 0
scalar FogSequentialForward.fog[52].dispatcher probeAnswers 0
scalar FogSequentialForward.fog[52].dispatcher droppedJobsSLA 234016
scalar FogSequentialForward.fog[52].dispatcher jobs_class_1 8464013
scalar FogSequentialForward.fog[52].dispatcher remoteJobs_class_1 6839764
scalar FogSequentialForward.fog[52].dispatcher localJobs_class_1 1390233
scalar FogSequentialForward.fog[52].dispatcher droppedJobsSLA_class_1 234016
scalar FogSequentialForward.fog[52].server[0] rho 1
scalar FogSequentialForward.fog[52].server[0] congestionRatio 0
scalar FogSequentialForward.fog[52].server[0] totalJobs 1390233
scalar FogSequentialForward.fog[52].server[0] droppedJobsQueue 39135
scalar FogSequentialForward.fog[52].server[0] droppedJobsTimout 0
scalar FogSequentialForward.fog[52].server[0] droppedJobsSLA 873599
scalar FogSequentialForward.fog[52].server[0] droppedJobsTotal 912734
scalar FogSequentialForward.fog[53].dispatcher localJobs 1389734
scalar FogSequentialForward.fog[53].dispatcher internalJobs 1625008
scalar FogSequentialForward.fog[53].dispatcher externalJobs 6837246
scalar FogSequentialForward.fog[53].dispatcher remoteJobs 6838813
scalar FogSequentialForward.fog[53].dispatcher probeQueries 0
scalar FogSequentialForward.fog[53].dispatcher probeAnswers 0
scalar FogSequentialForward.fog[53].dispatcher droppedJobsSLA 233707
scalar FogSequentialForward.fog[53].dispatcher jobs_class_1 8462254
scalar FogSequentialForward.fog[53].dispatcher remoteJobs_class_1 6838813
scalar FogSequentialForward.fog[53].dispatcher localJobs_class_1 1389734
scalar FogSequentialForward.fog[53].dispatcher droppedJobsSLA_class_1 233707
scalar FogSequentialForward.fog[53].server[0] rho 1
scalar FogSequentialForward.fog[53].server[0] congestionRatio 0
scalar FogSequentialForward.fog[53].server[0] totalJobs 1389734
scalar FogSequentialForward.fog[53].server[0] droppedJobsQueue 39291
scalar FogSequentialForward.fog[53].server[0] droppedJobsTimout 0
scalar FogSequentialForward.fog[53].server[0] droppedJobsSLA 872263
scalar FogSequentialForward.fog[53].server[0] droppedJobsTotal 911554
scalar FogSequentialForward.fog[54].dispatcher localJobs 1389190
scalar FogSequentialForward.fog[54].dispatcher internalJobs 1622872
scalar FogSequentialForward.fog[54].dispatcher externalJobs 6839286
scalar FogSequentialForward.fog[54].dispatcher remoteJobs 6838871
scalar FogSequentialForward.fog[54].dispatcher probeQueries 0
scalar FogSequentialForward.fog[54].dispatcher probeAnswers 0
scalar FogSequentialForward.fog[54].dispatcher droppedJobsSLA 234097
scalar FogSequentialForward.fog[54].dispatcher jobs_class_1 8462158
scalar FogSequentialForward.fog[54].dispatcher remoteJobs_class_1 6838871
scalar FogSequentialForward.fog[54].dispatcher localJobs_class_1 1389190
scalar FogSequentialForward.fog[54].dispatcher droppedJobsSLA_class_1 234097
scalar FogSequentialForward.fog[54].server[0] rho 1
scalar FogSequentialForward.fog[54].server[0] congestionRatio 0
scalar FogSequentialForward.fog[54].server[0] totalJobs 1389190
scalar FogSequentialForward.fog[54].server[0] droppedJobsQueue 39118
scalar FogSequentialForward.fog[54].server[0] droppedJobsTimout 0
scalar FogSequentialForward.fog[54].server[0] droppedJobsSLA 871577
scalar FogSequentialForward.fog[54].server[0] droppedJobsTotal 910695
scalar FogSequentialForward.fog[55].dispatcher localJobs 1389839
scalar FogSequentialForward.fog[55].dispatcher internalJobs 1624103
scalar FogSequentialForward.fog[55].dispatcher externalJobs 6840477
scalar FogSequentialForward.fog[55].dispatcher remoteJobs 6841231
scalar FogSequentialForward.fog[55].dispatcher probeQueries 0
scalar FogSequentialForward.fog[55].dispatcher probeAnswers 0
scalar FogSequentialForward.fog[55].dispatcher droppedJobsSLA 233510
scalar FogSequentialForward.fog[55].dispatcher jobs_class_1 8464580
scalar FogSequentialForward.fog[55].dispatcher remoteJobs_class_1 6841231
scalar FogSequentialForward.fog[55].dispatcher localJobs_class_1 1389839
scalar FogSequentialForward.fog[55].dispatcher droppedJobsSLA_class_1 233510
scalar FogSequentialForward.fog[55].server[0] rho 0.99999982118607
scalar FogSequentialForward.fog[55].server[0] congestionRatio 0
scalar FogSequentialForward.fog[55].server[0] totalJobs 1389839
scalar FogSequentialForward.fog[55].server[0] droppedJobsQueue 39131
scalar FogSequentialForward.fog[55].server[0] droppedJobsTimout 0
scalar FogSequentialForward.fog[55].server[0] droppedJobsSLA 872396
scalar FogSequentialForward.fog[55].server[0] droppedJobsTotal 911527
scalar FogSequentialForward.fog[56].dispatcher localJobs 1388280
scalar FogSequentialForward.fog[56].dispatcher internalJobs 1623296
scalar FogSequentialForward.fog[56].dispatcher externalJobs 6836604
scalar FogSequentialForward.fog[56].dispatcher remoteJobs 6838863
scalar FogSequentialForward.fog[56].dispatcher probeQueries 0
scalar FogSequentialForward.fog[56].dispatcher probeAnswers 0
scalar FogSequentialForward.fog[56].dispatcher droppedJobsSLA 232757
scalar FogSequentialForward.fog[56].dispatcher jobs_class_1 8459900
scalar FogSequentialForward.fog[56].dispatcher remoteJobs_class_1 6838863
scalar FogSequentialForward.fog[56].dispatcher localJobs_class_1 1388280
scalar FogSequentialForward.fog[56].dispatcher droppedJobsSLA_class_1 232757
scalar FogSequentialForward.fog[56].server[0] rho 1
scalar FogSequentialForward.fog[56].server[0] congestionRatio 0
scalar FogSequentialForward.fog[56].server[0] totalJobs 1388280
scalar FogSequentialForward.fog[56].server[0] droppedJobsQueue 38811
scalar FogSequentialForward.fog[56].server[0] droppedJobsTimout 0
scalar FogSequentialForward.fog[56].server[0] droppedJobsSLA 871035
scalar FogSequentialForward.fog[56].server[0] droppedJobsTotal 909846
scalar FogSequentialForward.fog[57].dispatcher localJobs 1389329
scalar FogSequentialForward.fog[57].dispatcher internalJobs 1622282
scalar FogSequentialForward.fog[57].dispatcher externalJobs 6833889
scalar FogSequentialForward.fog[57].dispatcher remoteJobs 6833958
scalar FogSequentialForward.fog[57].dispatcher probeQueries 0
scalar FogSequentialForward.fog[57].dispatcher probeAnswers 0
scalar FogSequentialForward.fog[57].dispatcher droppedJobsSLA 232884
scalar FogSequentialForward.fog[57].dispatcher jobs_class_1 8456171
scalar FogSequentialForward.fog[57].dispatcher remoteJobs_class_1 6833958
scalar FogSequentialForward.fog[57].dispatcher localJobs_class_1 1389329
scalar FogSequentialForward.fog[57].dispatcher droppedJobsSLA_class_1 232884
scalar FogSequentialForward.fog[57].server[0] rho 1
scalar FogSequentialForward.fog[57].server[0] congestionRatio 0
scalar FogSequentialForward.fog[57].server[0] totalJobs 1389329
scalar FogSequentialForward.fog[57].server[0] droppedJobsQueue 39021
scalar FogSequentialForward.fog[57].server[0] droppedJobsTimout 0
scalar FogSequentialForward.fog[57].server[0] droppedJobsSLA 872632
scalar FogSequentialForward.fog[57].server[0] droppedJobsTotal 911653
scalar FogSequentialForward.fog[58].dispatcher localJobs 1389407
scalar FogSequentialForward.fog[58].dispatcher internalJobs 1622659
scalar FogSequentialForward.fog[58].dispatcher externalJobs 6840520
scalar FogSequentialForward.fog[58].dispatcher remoteJobs 6840836
scalar FogSequentialForward.fog[58].dispatcher probeQueries 0
scalar FogSequentialForward.fog[58].dispatcher probeAnswers 0
scalar FogSequentialForward.fog[58].dispatcher droppedJobsSLA 232936
scalar FogSequentialForward.fog[58].dispatcher jobs_class_1 8463179
scalar FogSequentialForward.fog[58].dispatcher remoteJobs_class_1 6840836
scalar FogSequentialForward.fog[58].dispatcher localJobs_class_1 1389407
scalar FogSequentialForward.fog[58].dispatcher droppedJobsSLA_class_1 232936
scalar FogSequentialForward.fog[58].server[0] rho 1
scalar FogSequentialForward.fog[58].server[0] congestionRatio 0
scalar FogSequentialForward.fog[58].server[0] totalJobs 1389407
scalar FogSequentialForward.fog[58].server[0] droppedJobsQueue 38930
scalar FogSequentialForward.fog[58].server[0] droppedJobsTimout 0
scalar FogSequentialForward.fog[58].server[0] droppedJobsSLA 871568
scalar FogSequentialForward.fog[58].server[0] droppedJobsTotal 910498
scalar FogSequentialForward.fog[59].dispatcher localJobs 1390582
scalar FogSequentialForward.fog[59].dispatcher internalJobs 1622254
scalar FogSequentialForward.fog[59].dispatcher externalJobs 6844997
scalar FogSequentialForward.fog[59].dispatcher remoteJobs 6842914
scalar FogSequentialForward.fog[59].dispatcher probeQueries 0
scalar FogSequentialForward.fog[59].dispatcher probeAnswers 0
scalar FogSequentialForward.fog[59].dispatcher droppedJobsSLA 233755
scalar FogSequentialForward.fog[59].dispatcher jobs_class_1 8467251
scalar FogSequentialForward.fog[59].dispatcher remoteJobs_class_1 6842914
scalar FogSequentialForward.fog[59].dispatcher localJobs_class_1 1390582
scalar FogSequentialForward.fog[59].dispatcher droppedJobsSLA_class_1 233755
scalar FogSequentialForward.fog[59].server[0] rho 0.99999988079071
scalar FogSequentialForward.fog[59].server[0] congestionRatio 0
scalar FogSequentialForward.fog[59].server[0] totalJobs 1390582
scalar FogSequentialForward.fog[59].server[0] droppedJobsQueue 39221
scalar FogSequentialForward.fog[59].server[0] droppedJobsTimout 0
scalar FogSequentialForward.fog[59].server[0] droppedJobsSLA 873650
scalar FogSequentialForward.fog[59].server[0] droppedJobsTotal 912871
scalar FogSequentialForward.fog[60].dispatcher localJobs 1390085
scalar FogSequentialForward.fog[60].dispatcher internalJobs 1622936
scalar FogSequentialForward.fog[60].dispatcher externalJobs 6840622
scalar FogSequentialForward.fog[60].dispatcher remoteJobs 6839907
scalar FogSequentialForward.fog[60].dispatcher probeQueries 0
scalar FogSequentialForward.fog[60].dispatcher probeAnswers 0
scalar FogSequentialForward.fog[60].dispatcher droppedJobsSLA 233566
scalar FogSequentialForward.fog[60].dispatcher jobs_class_1 8463558
scalar FogSequentialForward.fog[60].dispatcher remoteJobs_class_1 6839907
scalar FogSequentialForward.fog[60].dispatcher localJobs_class_1 1390085
scalar FogSequentialForward.fog[60].dispatcher droppedJobsSLA_class_1 233566
scalar FogSequentialForward.fog[60].server[0] rho 1
scalar FogSequentialForward.fog[60].server[0] congestionRatio 0
scalar FogSequentialForward.fog[60].server[0] totalJobs 1390085
scalar FogSequentialForward.fog[60].server[0] droppedJobsQueue 39135
scalar FogSequentialForward.fog[60].server[0] droppedJobsTimout 0
scalar FogSequentialForward.fog[60].server[0] droppedJobsSLA 872599
scalar FogSequentialForward.fog[60].server[0] droppedJobsTotal 911734
scalar FogSequentialForward.fog[61].dispatcher localJobs 1389913
scalar FogSequentialForward.fog[61].dispatcher internalJobs 1623094
scalar FogSequentialForward.fog[61].dispatcher externalJobs 6837609
scalar FogSequentialForward.fog[61].dispatcher remoteJobs 6837725
scalar FogSequentialForward.fog[61].dispatcher probeQueries 0
scalar FogSequentialForward.fog[61].dispatcher probeAnswers 0
scalar FogSequentialForward.fog[61].dispatcher droppedJobsSLA 233065
scalar FogSequentialForward.fog[61].dispatcher jobs_class_1 8460703
scalar FogSequentialForward.fog[61].dispatcher remoteJobs_class_1 6837725
scalar FogSequentialForward.fog[61].dispatcher localJobs_class_1 1389913
scalar FogSequentialForward.fog[61].dispatcher droppedJobsSLA_class_1 233065
scalar FogSequentialForward.fog[61].server[0] rho 0.99999988079071
scalar FogSequentialForward.fog[61].server[0] congestionRatio 0
scalar FogSequentialForward.fog[61].server[0] totalJobs 1389913
scalar FogSequentialForward.fog[61].server[0] droppedJobsQueue 39014
scalar FogSequentialForward.fog[61].server[0] droppedJobsTimout 0
scalar FogSequentialForward.fog[61].server[0] droppedJobsSLA 872341
scalar FogSequentialForward.fog[61].server[0] droppedJobsTotal 911355
scalar FogSequentialForward.fog[62].dispatcher localJobs 1389289
scalar FogSequentialForward.fog[62].dispatcher internalJobs 1625546
scalar FogSequentialForward.fog[62].dispatcher externalJobs 6835169
scalar FogSequentialForward.fog[62].dispatcher remoteJobs 6837523
scalar FogSequentialForward.fog[62].dispatcher probeQueries 0
scalar FogSequentialForward.fog[62].dispatcher probeAnswers 0
scalar FogSequentialForward.fog[62].dispatcher droppedJobsSLA 233903
scalar FogSequentialForward.fog[62].dispatcher jobs_class_1 8460715
scalar FogSequentialForward.fog[62].dispatcher remoteJobs_class_1 6837523
scalar FogSequentialForward.fog[62].dispatcher localJobs_class_1 1389289
scalar FogSequentialForward.fog[62].dispatcher droppedJobsSLA_class_1 233903
scalar FogSequentialForward.fog[62].server[0] rho 1
scalar FogSequentialForward.fog[62].server[0] congestionRatio 0
scalar FogSequentialForward.fog[62].server[0] totalJobs 1389289
scalar FogSequentialForward.fog[62].server[0] droppedJobsQueue 39115
scalar FogSequentialForward.fog[62].server[0] droppedJobsTimout 0
scalar FogSequentialForward.fog[62].server[0] droppedJobsSLA 871710
scalar FogSequentialForward.fog[62].server[0] droppedJobsTotal 910825
scalar FogSequentialForward.fog[63].dispatcher localJobs 1389898
scalar FogSequentialForward.fog[63].dispatcher internalJobs 1622913
scalar FogSequentialForward.fog[63].dispatcher externalJobs 6837706
scalar FogSequentialForward.fog[63].dispatcher remoteJobs 6837436
scalar FogSequentialForward.fog[63].dispatcher probeQueries 0
scalar FogSequentialForward.fog[63].dispatcher probeAnswers 0
scalar FogSequentialForward.fog[63].dispatcher droppedJobsSLA 233285
scalar FogSequentialForward.fog[63].dispatcher jobs_class_1 8460619
scalar FogSequentialForward.fog[63].dispatcher remoteJobs_class_1 6837436
scalar FogSequentialForward.fog[63].dispatcher localJobs_class_1 1389898
scalar FogSequentialForward.fog[63].dispatcher droppedJobsSLA_class_1 233285
scalar FogSequentialForward.fog[63].server[0] rho 0.9999994635582
scalar FogSequentialForward.fog[63].server[0] congestionRatio 0
scalar FogSequentialForward.fog[63].server[0] totalJobs 1389898
scalar FogSequentialForward.fog[63].server[0] droppedJobsQueue 39094
scalar FogSequentialForward.fog[63].server[0] droppedJobsTimout 0
scalar FogSequentialForward.fog[63].server[0] droppedJobsSLA 872847
scalar FogSequentialForward.fog[63].server[0] droppedJobsTotal 911941
scalar FogSequentialForward.fog[64].dispatcher localJobs 1390593
scalar FogSequentialForward.fog[64].dispatcher internalJobs 1623239
scalar FogSequentialForward.fog[64].dispatcher externalJobs 6839389
scalar FogSequentialForward.fog[64].dispatcher remoteJobs 6838392
scalar FogSequentialForward.fog[64].dispatcher probeQueries 0
scalar FogSequentialForward.fog[64].dispatcher probeAnswers 0
scalar FogSequentialForward.fog[64].dispatcher droppedJobsSLA 233643
scalar FogSequentialForward.fog[64].dispatcher jobs_class_1 8462628
scalar FogSequentialForward.fog[64].dispatcher remoteJobs_class_1 6838392
scalar FogSequentialForward.fog[64].dispatcher localJobs_class_1 1390593
scalar FogSequentialForward.fog[64].dispatcher droppedJobsSLA_class_1 233643
scalar FogSequentialForward.fog[64].server[0] rho 1
scalar FogSequentialForward.fog[64].server[0] congestionRatio 0
scalar FogSequentialForward.fog[64].server[0] totalJobs 1390593
scalar FogSequentialForward.fog[64].server[0] droppedJobsQueue 39226
scalar FogSequentialForward.fog[64].server[0] droppedJobsTimout 0
scalar FogSequentialForward.fog[64].server[0] droppedJobsSLA 873558
scalar FogSequentialForward.fog[64].server[0] droppedJobsTotal 912784
scalar FogSequentialForward.fog[65].dispatcher localJobs 1389329
scalar FogSequentialForward.fog[65].dispatcher internalJobs 1621520
scalar FogSequentialForward.fog[65].dispatcher externalJobs 6833769
scalar FogSequentialForward.fog[65].dispatcher remoteJobs 6833567
scalar FogSequentialForward.fog[65].dispatcher probeQueries 0
scalar FogSequentialForward.fog[65].dispatcher probeAnswers 0
[...]
scalar FogSequentialForward.fog[84].dispatcher jobs_class_1 8459520
scalar FogSequentialForward.fog[84].dispatcher remoteJobs_class_1 6836556
scalar FogSequentialForward.fog[84].dispatcher localJobs_class_1 1389261
scalar FogSequentialForward.fog[84].dispatcher droppedJobsSLA_class_1 233703
scalar FogSequentialForward.fog[84].server[0] rho 1
scalar FogSequentialForward.fog[84].server[0] congestionRatio 0
scalar FogSequentialForward.fog[84].server[0] totalJobs 1389261
scalar FogSequentialForward.fog[84].server[0] droppedJobsQueue 38954
scalar FogSequentialForward.fog[84].server[0] droppedJobsTimout 0
scalar FogSequentialForward.fog[84].server[0] droppedJobsSLA 872042
scalar FogSequentialForward.fog[84].server[0] droppedJobsTotal 910996
scalar FogSequentialForward.fog[85].dispatcher localJobs 1389367
scalar FogSequentialForward.fog[85].dispatcher internalJobs 1624654
scalar FogSequentialForward.fog[85].dispatcher externalJobs 6834860
scalar FogSequentialForward.fog[85].dispatcher remoteJobs 6836107
scalar FogSequentialForward.fog[85].dispatcher probeQueries 0
scalar FogSequentialForward.fog[85].dispatcher probeAnswers 0
scalar FogSequentialForward.fog[85].dispatcher droppedJobsSLA 234040
scalar FogSequentialForward.fog[85].dispatcher jobs_class_1 8459514
scalar FogSequentialForward.fog[85].dispatcher remoteJobs_class_1 6836107
scalar FogSequentialForward.fog[85].dispatcher localJobs_class_1 1389367
scalar FogSequentialForward.fog[85].dispatcher droppedJobsSLA_class_1 234040
scalar FogSequentialForward.fog[85].server[0] rho 0.99999958276749
scalar FogSequentialForward.fog[85].server[0] congestionRatio 0
scalar FogSequentialForward.fog[85].server[0] totalJobs 1389367
scalar FogSequentialForward.fog[85].server[0] droppedJobsQueue 39067
scalar FogSequentialForward.fog[85].server[0] droppedJobsTimout 0
scalar FogSequentialForward.fog[85].server[0] droppedJobsSLA 872416
scalar FogSequentialForward.fog[85].server[0] droppedJobsTotal 911483
scalar FogSequentialForward.fog[86].dispatcher localJobs 1389312
scalar FogSequentialForward.fog[86].dispatcher internalJobs 1622368
scalar FogSequentialForward.fog[86].dispatcher externalJobs 6838624
scalar FogSequentialForward.fog[86].dispatcher remoteJobs 6838336
scalar FogSequentialForward.fog[86].dispatcher probeQueries 0
scalar FogSequentialForward.fog[86].dispatcher probeAnswers 0
scalar FogSequentialForward.fog[86].dispatcher droppedJobsSLA 233344
scalar FogSequentialForward.fog[86].dispatcher jobs_class_1 8460992
scalar FogSequentialForward.fog[86].dispatcher remoteJobs_class_1 6838336
scalar FogSequentialForward.fog[86].dispatcher localJobs_class_1 1389312
scalar FogSequentialForward.fog[86].dispatcher droppedJobsSLA_class_1 233344
scalar FogSequentialForward.fog[86].server[0] rho 1
scalar FogSequentialForward.fog[86].server[0] congestionRatio 0
scalar FogSequentialForward.fog[86].server[0] totalJobs 1389312
scalar FogSequentialForward.fog[86].server[0] droppedJobsQueue 39054
scalar FogSequentialForward.fog[86].server[0] droppedJobsTimout 0
scalar FogSequentialForward.fog[86].server[0] droppedJobsSLA 871635
scalar FogSequentialForward.fog[86].server[0] droppedJobsTotal 910689
scalar FogSequentialForward.fog[87].dispatcher localJobs 1390053
scalar FogSequentialForward.fog[87].dispatcher internalJobs 1621981
scalar FogSequentialForward.fog[87].dispatcher externalJobs 6837452
scalar FogSequentialForward.fog[87].dispatcher remoteJobs 6837182
scalar FogSequentialForward.fog[87].dispatcher probeQueries 0
scalar FogSequentialForward.fog[87].dispatcher probeAnswers 0
scalar FogSequentialForward.fog[87].dispatcher droppedJobsSLA 232198
scalar FogSequentialForward.fog[87].dispatcher jobs_class_1 8459433
scalar FogSequentialForward.fog[87].dispatcher remoteJobs_class_1 6837182
scalar FogSequentialForward.fog[87].dispatcher localJobs_class_1 1390053
scalar FogSequentialForward.fog[87].dispatcher droppedJobsSLA_class_1 232198
scalar FogSequentialForward.fog[87].server[0] rho 1
scalar FogSequentialForward.fog[87].server[0] congestionRatio 0
scalar FogSequentialForward.fog[87].server[0] totalJobs 1390053
scalar FogSequentialForward.fog[87].server[0] droppedJobsQueue 38867
scalar FogSequentialForward.fog[87].server[0] droppedJobsTimout 0
scalar FogSequentialForward.fog[87].server[0] droppedJobsSLA 872645
scalar FogSequentialForward.fog[87].server[0] droppedJobsTotal 911512
scalar FogSequentialForward.fog[88].dispatcher localJobs 1389133
scalar FogSequentialForward.fog[88].dispatcher internalJobs 1623748
scalar FogSequentialForward.fog[88].dispatcher externalJobs 6838379
scalar FogSequentialForward.fog[88].dispatcher remoteJobs 6839733
scalar FogSequentialForward.fog[88].dispatcher probeQueries 0
scalar FogSequentialForward.fog[88].dispatcher probeAnswers 0
scalar FogSequentialForward.fog[88].dispatcher droppedJobsSLA 233261
scalar FogSequentialForward.fog[88].dispatcher jobs_class_1 8462127
scalar FogSequentialForward.fog[88].dispatcher remoteJobs_class_1 6839733
scalar FogSequentialForward.fog[88].dispatcher localJobs_class_1 1389133
scalar FogSequentialForward.fog[88].dispatcher droppedJobsSLA_class_1 233261
scalar FogSequentialForward.fog[88].server[0] rho 1
scalar FogSequentialForward.fog[88].server[0] congestionRatio 0
scalar FogSequentialForward.fog[88].server[0] totalJobs 1389133
scalar FogSequentialForward.fog[88].server[0] droppedJobsQueue 39233
scalar FogSequentialForward.fog[88].server[0] droppedJobsTimout 0
scalar FogSequentialForward.fog[88].server[0] droppedJobsSLA 872083
scalar FogSequentialForward.fog[88].server[0] droppedJobsTotal 911316
scalar FogSequentialForward.fog[89].dispatcher localJobs 1390118
scalar FogSequentialForward.fog[89].dispatcher internalJobs 1622316
scalar FogSequentialForward.fog[89].dispatcher externalJobs 6842661
scalar FogSequentialForward.fog[89].dispatcher remoteJobs 6841037
scalar FogSequentialForward.fog[89].dispatcher probeQueries 0
scalar FogSequentialForward.fog[89].dispatcher probeAnswers 0
scalar FogSequentialForward.fog[89].dispatcher droppedJobsSLA 233822
scalar FogSequentialForward.fog[89].dispatcher jobs_class_1 8464977
scalar FogSequentialForward.fog[89].dispatcher remoteJobs_class_1 6841037
scalar FogSequentialForward.fog[89].dispatcher localJobs_class_1 1390118
scalar FogSequentialForward.fog[89].dispatcher droppedJobsSLA_class_1 233822
scalar FogSequentialForward.fog[89].server[0] rho 1
scalar FogSequentialForward.fog[89].server[0] congestionRatio 0
scalar FogSequentialForward.fog[89].server[0] totalJobs 1390118
scalar FogSequentialForward.fog[89].server[0] droppedJobsQueue 39129
scalar FogSequentialForward.fog[89].server[0] droppedJobsTimout 0
scalar FogSequentialForward.fog[89].server[0] droppedJobsSLA 872681
scalar FogSequentialForward.fog[89].server[0] droppedJobsTotal 911810
scalar FogSequentialForward.fog[90].dispatcher localJobs 1390120
scalar FogSequentialForward.fog[90].dispatcher internalJobs 1619919
scalar FogSequentialForward.fog[90].dispatcher externalJobs 6839046
scalar FogSequentialForward.fog[90].dispatcher remoteJobs 6835436
scalar FogSequentialForward.fog[90].dispatcher probeQueries 0
scalar FogSequentialForward.fog[90].dispatcher probeAnswers 0
scalar FogSequentialForward.fog[90].dispatcher droppedJobsSLA 233409
scalar FogSequentialForward.fog[90].dispatcher jobs_class_1 8458965
scalar FogSequentialForward.fog[90].dispatcher remoteJobs_class_1 6835436
scalar FogSequentialForward.fog[90].dispatcher localJobs_class_1 1390120
scalar FogSequentialForward.fog[90].dispatcher droppedJobsSLA_class_1 233409
scalar FogSequentialForward.fog[90].server[0] rho 1
scalar FogSequentialForward.fog[90].server[0] congestionRatio 0
scalar FogSequentialForward.fog[90].server[0] totalJobs 1390120
scalar FogSequentialForward.fog[90].server[0] droppedJobsQueue 39098
scalar FogSequentialForward.fog[90].server[0] droppedJobsTimout 0
scalar FogSequentialForward.fog[90].server[0] droppedJobsSLA 872326
scalar FogSequentialForward.fog[90].server[0] droppedJobsTotal 911424
scalar FogSequentialForward.fog[91].dispatcher localJobs 1389752
scalar FogSequentialForward.fog[91].dispatcher internalJobs 1623667
scalar FogSequentialForward.fog[91].dispatcher externalJobs 6840464
scalar FogSequentialForward.fog[91].dispatcher remoteJobs 6840868
scalar FogSequentialForward.fog[91].dispatcher probeQueries 0
scalar FogSequentialForward.fog[91].dispatcher probeAnswers 0
scalar FogSequentialForward.fog[91].dispatcher droppedJobsSLA 233511
scalar FogSequentialForward.fog[91].dispatcher jobs_class_1 8464131
scalar FogSequentialForward.fog[91].dispatcher remoteJobs_class_1 6840868
scalar FogSequentialForward.fog[91].dispatcher localJobs_class_1 1389752
scalar FogSequentialForward.fog[91].dispatcher droppedJobsSLA_class_1 233511
scalar FogSequentialForward.fog[91].server[0] rho 0.99999994039536
scalar FogSequentialForward.fog[91].server[0] congestionRatio 0
scalar FogSequentialForward.fog[91].server[0] totalJobs 1389752
scalar FogSequentialForward.fog[91].server[0] droppedJobsQueue 39052
scalar FogSequentialForward.fog[91].server[0] droppedJobsTimout 0
scalar FogSequentialForward.fog[91].server[0] droppedJobsSLA 872032
scalar FogSequentialForward.fog[91].server[0] droppedJobsTotal 911084
scalar FogSequentialForward.fog[92].dispatcher localJobs 1389138
scalar FogSequentialForward.fog[92].dispatcher internalJobs 1622716
scalar FogSequentialForward.fog[92].dispatcher externalJobs 6840442
scalar FogSequentialForward.fog[92].dispatcher remoteJobs 6840708
scalar FogSequentialForward.fog[92].dispatcher probeQueries 0
scalar FogSequentialForward.fog[92].dispatcher probeAnswers 0
scalar FogSequentialForward.fog[92].dispatcher droppedJobsSLA 233312
scalar FogSequentialForward.fog[92].dispatcher jobs_class_1 8463158
scalar FogSequentialForward.fog[92].dispatcher remoteJobs_class_1 6840708
scalar FogSequentialForward.fog[92].dispatcher localJobs_class_1 1389138
scalar FogSequentialForward.fog[92].dispatcher droppedJobsSLA_class_1 233312
scalar FogSequentialForward.fog[92].server[0] rho 1
scalar FogSequentialForward.fog[92].server[0] congestionRatio 0
scalar FogSequentialForward.fog[92].server[0] totalJobs 1389138
scalar FogSequentialForward.fog[92].server[0] droppedJobsQueue 39255
scalar FogSequentialForward.fog[92].server[0] droppedJobsTimout 0
scalar FogSequentialForward.fog[92].server[0] droppedJobsSLA 872207
scalar FogSequentialForward.fog[92].server[0] droppedJobsTotal 911462
scalar FogSequentialForward.fog[93].dispatcher localJobs 1390143
scalar FogSequentialForward.fog[93].dispatcher internalJobs 1622293
scalar FogSequentialForward.fog[93].dispatcher externalJobs 6841835
scalar FogSequentialForward.fog[93].dispatcher remoteJobs 6840302
scalar FogSequentialForward.fog[93].dispatcher probeQueries 0
scalar FogSequentialForward.fog[93].dispatcher probeAnswers 0
scalar FogSequentialForward.fog[93].dispatcher droppedJobsSLA 233683
scalar FogSequentialForward.fog[93].dispatcher jobs_class_1 8464128
scalar FogSequentialForward.fog[93].dispatcher remoteJobs_class_1 6840302
scalar FogSequentialForward.fog[93].dispatcher localJobs_class_1 1390143
scalar FogSequentialForward.fog[93].dispatcher droppedJobsSLA_class_1 233683
scalar FogSequentialForward.fog[93].server[0] rho 1
scalar FogSequentialForward.fog[93].server[0] congestionRatio 0
scalar FogSequentialForward.fog[93].server[0] totalJobs 1390143
scalar FogSequentialForward.fog[93].server[0] droppedJobsQueue 38946
scalar FogSequentialForward.fog[93].server[0] droppedJobsTimout 0
scalar FogSequentialForward.fog[93].server[0] droppedJobsSLA 872715
scalar FogSequentialForward.fog[93].server[0] droppedJobsTotal 911661
scalar FogSequentialForward.fog[94].dispatcher localJobs 1390268
scalar FogSequentialForward.fog[94].dispatcher internalJobs 1622492
scalar FogSequentialForward.fog[94].dispatcher externalJobs 6837000
scalar FogSequentialForward.fog[94].dispatcher remoteJobs 6835921
scalar FogSequentialForward.fog[94].dispatcher probeQueries 0
scalar FogSequentialForward.fog[94].dispatcher probeAnswers 0
scalar FogSequentialForward.fog[94].dispatcher droppedJobsSLA 233303
scalar FogSequentialForward.fog[94].dispatcher jobs_class_1 8459492
scalar FogSequentialForward.fog[94].dispatcher remoteJobs_class_1 6835921
scalar FogSequentialForward.fog[94].dispatcher localJobs_class_1 1390268
scalar FogSequentialForward.fog[94].dispatcher droppedJobsSLA_class_1 233303
scalar FogSequentialForward.fog[94].server[0] rho 1
scalar FogSequentialForward.fog[94].server[0] congestionRatio 0
scalar FogSequentialForward.fog[94].server[0] totalJobs 1390268
scalar FogSequentialForward.fog[94].server[0] droppedJobsQueue 39195
scalar FogSequentialForward.fog[94].server[0] droppedJobsTimout 0
scalar FogSequentialForward.fog[94].server[0] droppedJobsSLA 872998
scalar FogSequentialForward.fog[94].server[0] droppedJobsTotal 912193
scalar FogSequentialForward.fog[95].dispatcher localJobs 1389099
scalar FogSequentialForward.fog[95].dispatcher internalJobs 1624518
scalar FogSequentialForward.fog[95].dispatcher externalJobs 6833362
scalar FogSequentialForward.fog[95].dispatcher remoteJobs 6835503
scalar FogSequentialForward.fog[95].dispatcher probeQueries 0
scalar FogSequentialForward.fog[95].dispatcher probeAnswers 0
scalar FogSequentialForward.fog[95].dispatcher droppedJobsSLA 233278
scalar FogSequentialForward.fog[95].dispatcher jobs_class_1 8457880
scalar FogSequentialForward.fog[95].dispatcher remoteJobs_class_1 6835503
scalar FogSequentialForward.fog[95].dispatcher localJobs_class_1 1389099
scalar FogSequentialForward.fog[95].dispatcher droppedJobsSLA_class_1 233278
scalar FogSequentialForward.fog[95].server[0] rho 1
scalar FogSequentialForward.fog[95].server[0] congestionRatio 0
scalar FogSequentialForward.fog[95].server[0] totalJobs 1389099
scalar FogSequentialForward.fog[95].server[0] droppedJobsQueue 38896
scalar FogSequentialForward.fog[95].server[0] droppedJobsTimout 0
scalar FogSequentialForward.fog[95].server[0] droppedJobsSLA 871436
scalar FogSequentialForward.fog[95].server[0] droppedJobsTotal 910332
scalar FogSequentialForward.fog[96].dispatcher localJobs 1389917
scalar FogSequentialForward.fog[96].dispatcher internalJobs 1621586
scalar FogSequentialForward.fog[96].dispatcher externalJobs 6840148
scalar FogSequentialForward.fog[96].dispatcher remoteJobs 6838952
scalar FogSequentialForward.fog[96].dispatcher probeQueries 0
scalar FogSequentialForward.fog[96].dispatcher probeAnswers 0
scalar FogSequentialForward.fog[96].dispatcher droppedJobsSLA 232865
scalar FogSequentialForward.fog[96].dispatcher jobs_class_1 8461734
scalar FogSequentialForward.fog[96].dispatcher remoteJobs_class_1 6838952
scalar FogSequentialForward.fog[96].dispatcher localJobs_class_1 1389917
scalar FogSequentialForward.fog[96].dispatcher droppedJobsSLA_class_1 232865
scalar FogSequentialForward.fog[96].server[0] rho 1
scalar FogSequentialForward.fog[96].server[0] congestionRatio 0
scalar FogSequentialForward.fog[96].server[0] totalJobs 1389917
scalar FogSequentialForward.fog[96].server[0] droppedJobsQueue 39210
scalar FogSequentialForward.fog[96].server[0] droppedJobsTimout 0
scalar FogSequentialForward.fog[96].server[0] droppedJobsSLA 872256
scalar FogSequentialForward.fog[96].server[0] droppedJobsTotal 911466
scalar FogSequentialForward.fog[97].dispatcher localJobs 1389274
scalar FogSequentialForward.fog[97].dispatcher internalJobs 1625857
scalar FogSequentialForward.fog[97].dispatcher externalJobs 6833364
scalar FogSequentialForward.fog[97].dispatcher remoteJobs 6837235
scalar FogSequentialForward.fog[97].dispatcher probeQueries 0
scalar FogSequentialForward.fog[97].dispatcher probeAnswers 0
scalar FogSequentialForward.fog[97].dispatcher droppedJobsSLA 232712
scalar FogSequentialForward.fog[97].dispatcher jobs_class_1 8459221
scalar FogSequentialForward.fog[97].dispatcher remoteJobs_class_1 6837235
scalar FogSequentialForward.fog[97].dispatcher localJobs_class_1 1389274
scalar FogSequentialForward.fog[97].dispatcher droppedJobsSLA_class_1 232712
scalar FogSequentialForward.fog[97].server[0] rho 1
scalar FogSequentialForward.fog[97].server[0] congestionRatio 0
scalar FogSequentialForward.fog[97].server[0] totalJobs 1389274
scalar FogSequentialForward.fog[97].server[0] droppedJobsQueue 38958
scalar FogSequentialForward.fog[97].server[0] droppedJobsTimout 0
scalar FogSequentialForward.fog[97].server[0] droppedJobsSLA 872372
scalar FogSequentialForward.fog[97].server[0] droppedJobsTotal 911330
scalar FogSequentialForward.fog[98].dispatcher localJobs 1389872
scalar FogSequentialForward.fog[98].dispatcher internalJobs 1622844
scalar FogSequentialForward.fog[98].dispatcher externalJobs 6835248
scalar FogSequentialForward.fog[98].dispatcher remoteJobs 6834524
scalar FogSequentialForward.fog[98].dispatcher probeQueries 0
scalar FogSequentialForward.fog[98].dispatcher probeAnswers 0
scalar FogSequentialForward.fog[98].dispatcher droppedJobsSLA 233696
scalar FogSequentialForward.fog[98].dispatcher jobs_class_1 8458092
scalar FogSequentialForward.fog[98].dispatcher remoteJobs_class_1 6834524
scalar FogSequentialForward.fog[98].dispatcher localJobs_class_1 1389872
scalar FogSequentialForward.fog[98].dispatcher droppedJobsSLA_class_1 233696
scalar FogSequentialForward.fog[98].server[0] rho 1
scalar FogSequentialForward.fog[98].server[0] congestionRatio 0
scalar FogSequentialForward.fog[98].server[0] totalJobs 1389872
scalar FogSequentialForward.fog[98].server[0] droppedJobsQueue 39171
scalar FogSequentialForward.fog[98].server[0] droppedJobsTimout 0
scalar FogSequentialForward.fog[98].server[0] droppedJobsSLA 873017
scalar FogSequentialForward.fog[98].server[0] droppedJobsTotal 912188
scalar FogSequentialForward.fog[99].dispatcher localJobs 1389301
scalar FogSequentialForward.fog[99].dispatcher internalJobs 1623640
scalar FogSequentialForward.fog[99].dispatcher externalJobs 6836845
scalar FogSequentialForward.fog[99].dispatcher remoteJobs 6838408
scalar FogSequentialForward.fog[99].dispatcher probeQueries 0
scalar FogSequentialForward.fog[99].dispatcher probeAnswers 0
scalar FogSequentialForward.fog[99].dispatcher droppedJobsSLA 232776
scalar FogSequentialForward.fog[99].dispatcher jobs_class_1 8460485
scalar FogSequentialForward.fog[99].dispatcher remoteJobs_class_1 6838408
scalar FogSequentialForward.fog[99].dispatcher localJobs_class_1 1389301
scalar FogSequentialForward.fog[99].dispatcher droppedJobsSLA_class_1 232776
scalar FogSequentialForward.fog[99].server[0] rho 1
scalar FogSequentialForward.fog[99].server[0] congestionRatio 0
scalar FogSequentialForward.fog[99].server[0] totalJobs 1389301
scalar FogSequentialForward.fog[99].server[0] droppedJobsQueue 39242
scalar FogSequentialForward.fog[99].server[0] droppedJobsTimout 0
scalar FogSequentialForward.fog[99].server[0] droppedJobsSLA 871767
scalar FogSequentialForward.fog[99].server[0] droppedJobsTotal 911009
scalar FogSequentialForward.sink avg_responseTime_1 0.13522178734837
scalar FogSequentialForward.sink p90_responseTime_1 0.015932075542
scalar FogSequentialForward.sink med_responseTime_1 0.015932075542
scalar FogSequentialForward.sink avg_delayTime_1 0
scalar FogSequentialForward.sink p90_delayTime_1 0
scalar FogSequentialForward.sink med_delayTime_1 0
scalar FogSequentialForward.sink avg_queuingTime_1 0.10074690636313
scalar FogSequentialForward.sink p90_queuingTime_1 0
scalar FogSequentialForward.sink med_queuingTime_1 0
scalar FogSequentialForward.sink avg_serviceTime_1 0.016722889634357
scalar FogSequentialForward.sink p90_serviceTime_1 0.014789704043
scalar FogSequentialForward.sink med_serviceTime_1 0.014789704043
scalar FogSequentialForward.sink avg_balancerTime_1 0.01775199135015
scalar FogSequentialForward.sink p90_balancerTime_1 0
scalar FogSequentialForward.sink med_balancerTime_1 0
scalar FogSequentialForward.sink avg_balancerCount_1 2.0629934940663
scalar FogSequentialForward.sink p90_balancerCount_1 1
scalar FogSequentialForward.sink med_balancerCount_1 1

