version 2
run Fog-mul_001-rho_05-thr_5-0-20190712-22:31:31-10423
attr configname Fog-mul_001-rho_05-thr_5
attr datetime 20190712-22:31:31
attr experiment Fog-mul_001-rho_05-thr_5
attr inifile FogSequentialForward.ini
attr iterationvars ""
attr iterationvarsf ""
attr measurement ""
attr network FogSequentialForward
attr processid 10423
attr repetition 0
attr replication #0
attr resultdir results
attr runnumber 0
attr seedset 0
param FogSequentialForward.proctimeMul 0.01
param FogSequentialForward.rho 0.5
param FogSequentialForward.fog[*].dispatcher.thr 5
param FogSequentialForward.nSources 100
param FogSequentialForward.rho 0.9
param FogSequentialForward.proctimeMul 1.0
param FogSequentialForward.source[*].appId 1
param FogSequentialForward.source[*].realTime true
param FogSequentialForward.source[*].multiHop true
param FogSequentialForward.fog[*].nServers 1
param FogSequentialForward.fog[*].dispatcher.fanOut 1
param FogSequentialForward.fog[*].server[*].timeSlice -1s
param FogSequentialForward.fog[*].server[*].timeout -1s
param FogSequentialForward.fog[*].server[*].capacity 20
param FogSequentialForward.fog[*].server[*].fifo true
param FogSequentialForward.fog[*].server[*].maxServiceTime -1s
param FogSequentialForward.fog[*].dispatcher.thr 1

scalar FogSequentialForward.fog[0].dispatcher localJobs 823028
scalar FogSequentialForward.fog[0].dispatcher internalJobs 901056
scalar FogSequentialForward.fog[0].dispatcher externalJobs 3142260
scalar FogSequentialForward.fog[0].dispatcher remoteJobs 3141282
scalar FogSequentialForward.fog[0].dispatcher probeQueries 0
scalar FogSequentialForward.fog[0].dispatcher probeAnswers 0
scalar FogSequentialForward.fog[0].dispatcher droppedJobsSLA 79006
scalar FogSequentialForward.fog[0].dispatcher jobs_class_1 4043316
scalar FogSequentialForward.fog[0].dispatcher remoteJobs_class_1 3141282
scalar FogSequentialForward.fog[0].dispatcher localJobs_class_1 823028
scalar FogSequentialForward.fog[0].dispatcher droppedJobsSLA_class_1 79006
scalar FogSequentialForward.fog[0].server[0] rho 0.9999680519104
scalar FogSequentialForward.fog[0].server[0] congestionRatio 0
scalar FogSequentialForward.fog[0].server[0] totalJobs 823028
scalar FogSequentialForward.fog[0].server[0] droppedJobsQueue 4
scalar FogSequentialForward.fog[0].server[0] droppedJobsTimout 0
scalar FogSequentialForward.fog[0].server[0] droppedJobsSLA 243052
scalar FogSequentialForward.fog[0].server[0] droppedJobsTotal 243056
scalar FogSequentialForward.fog[1].dispatcher localJobs 822742
scalar FogSequentialForward.fog[1].dispatcher internalJobs 900772
scalar FogSequentialForward.fog[1].dispatcher externalJobs 3140841
scalar FogSequentialForward.fog[1].dispatcher remoteJobs 3139890
scalar FogSequentialForward.fog[1].dispatcher probeQueries 0
scalar FogSequentialForward.fog[1].dispatcher probeAnswers 0
scalar FogSequentialForward.fog[1].dispatcher droppedJobsSLA 78981
scalar FogSequentialForward.fog[1].dispatcher jobs_class_1 4041613
scalar FogSequentialForward.fog[1].dispatcher remoteJobs_class_1 3139890
scalar FogSequentialForward.fog[1].dispatcher localJobs_class_1 822742
scalar FogSequentialForward.fog[1].dispatcher droppedJobsSLA_class_1 78981
scalar FogSequentialForward.fog[1].server[0] rho 0.9999680519104
scalar FogSequentialForward.fog[1].server[0] congestionRatio 0
scalar FogSequentialForward.fog[1].server[0] totalJobs 822742
scalar FogSequentialForward.fog[1].server[0] droppedJobsQueue 3
scalar FogSequentialForward.fog[1].server[0] droppedJobsTimout 0
scalar FogSequentialForward.fog[1].server[0] droppedJobsSLA 242728
scalar FogSequentialForward.fog[1].server[0] droppedJobsTotal 242731
scalar FogSequentialForward.fog[2].dispatcher localJobs 822859
scalar FogSequentialForward.fog[2].dispatcher internalJobs 903475
scalar FogSequentialForward.fog[2].dispatcher externalJobs 3137889
scalar FogSequentialForward.fog[2].dispatcher remoteJobs 3139785
scalar FogSequentialForward.fog[2].dispatcher probeQueries 0
scalar FogSequentialForward.fog[2].dispatcher probeAnswers 0
scalar FogSequentialForward.fog[2].dispatcher droppedJobsSLA 78720
scalar FogSequentialForward.fog[2].dispatcher jobs_class_1 4041364
scalar FogSequentialForward.fog[2].dispatcher remoteJobs_class_1 3139785
scalar FogSequentialForward.fog[2].dispatcher localJobs_class_1 822859
scalar FogSequentialForward.fog[2].dispatcher droppedJobsSLA_class_1 78720
scalar FogSequentialForward.fog[2].server[0] rho 0.99996596574783
scalar FogSequentialForward.fog[2].server[0] congestionRatio 0
scalar FogSequentialForward.fog[2].server[0] totalJobs 822859
scalar FogSequentialForward.fog[2].server[0] droppedJobsQueue 2
scalar FogSequentialForward.fog[2].server[0] droppedJobsTimout 0
scalar FogSequentialForward.fog[2].server[0] droppedJobsSLA 242642
scalar FogSequentialForward.fog[2].server[0] droppedJobsTotal 242644
scalar FogSequentialForward.fog[3].dispatcher localJobs 822878
scalar FogSequentialForward.fog[3].dispatcher internalJobs 901442
scalar FogSequentialForward.fog[3].dispatcher externalJobs 3142687
scalar FogSequentialForward.fog[3].dispatcher remoteJobs 3142501
scalar FogSequentialForward.fog[3].dispatcher probeQueries 0
scalar FogSequentialForward.fog[3].dispatcher probeAnswers 0
scalar FogSequentialForward.fog[3].dispatcher droppedJobsSLA 78750
scalar FogSequentialForward.fog[3].dispatcher jobs_class_1 4044129
scalar FogSequentialForward.fog[3].dispatcher remoteJobs_class_1 3142501
scalar FogSequentialForward.fog[3].dispatcher localJobs_class_1 822878
scalar FogSequentialForward.fog[3].dispatcher droppedJobsSLA_class_1 78750
scalar FogSequentialForward.fog[3].server[0] rho 0.99996316432953
scalar FogSequentialForward.fog[3].server[0] congestionRatio 0
scalar FogSequentialForward.fog[3].server[0] totalJobs 822878
scalar FogSequentialForward.fog[3].server[0] droppedJobsQueue 2
scalar FogSequentialForward.fog[3].server[0] droppedJobsTimout 0
scalar FogSequentialForward.fog[3].server[0] droppedJobsSLA 242751
scalar FogSequentialForward.fog[3].server[0] droppedJobsTotal 242753
scalar FogSequentialForward.fog[4].dispatcher localJobs 822827
scalar FogSequentialForward.fog[4].dispatcher internalJobs 901123
scalar FogSequentialForward.fog[4].dispatcher externalJobs 3141063
scalar FogSequentialForward.fog[4].dispatcher remoteJobs 3140599
scalar FogSequentialForward.fog[4].dispatcher probeQueries 0
scalar FogSequentialForward.fog[4].dispatcher probeAnswers 0
scalar FogSequentialForward.fog[4].dispatcher droppedJobsSLA 78760
scalar FogSequentialForward.fog[4].dispatcher jobs_class_1 4042186
scalar FogSequentialForward.fog[4].dispatcher remoteJobs_class_1 3140599
scalar FogSequentialForward.fog[4].dispatcher localJobs_class_1 822827
scalar FogSequentialForward.fog[4].dispatcher droppedJobsSLA_class_1 78760
scalar FogSequentialForward.fog[4].server[0] rho 0.99996316432953
scalar FogSequentialForward.fog[4].server[0] congestionRatio 0
scalar FogSequentialForward.fog[4].server[0] totalJobs 822827
scalar FogSequentialForward.fog[4].server[0] droppedJobsQueue 0
scalar FogSequentialForward.fog[4].server[0] droppedJobsTimout 0
scalar FogSequentialForward.fog[4].server[0] droppedJobsSLA 242469
scalar FogSequentialForward.fog[4].server[0] droppedJobsTotal 242469
scalar FogSequentialForward.fog[5].dispatcher localJobs 822347
scalar FogSequentialForward.fog[5].dispatcher internalJobs 903254
scalar FogSequentialForward.fog[5].dispatcher externalJobs 3139892
scalar FogSequentialForward.fog[5].dispatcher remoteJobs 3141986
scalar FogSequentialForward.fog[5].dispatcher probeQueries 0
scalar FogSequentialForward.fog[5].dispatcher probeAnswers 0
scalar FogSequentialForward.fog[5].dispatcher droppedJobsSLA 78813
scalar FogSequentialForward.fog[5].dispatcher jobs_class_1 4043146
scalar FogSequentialForward.fog[5].dispatcher remoteJobs_class_1 3141986
scalar FogSequentialForward.fog[5].dispatcher localJobs_class_1 822347
scalar FogSequentialForward.fog[5].dispatcher droppedJobsSLA_class_1 78813
scalar FogSequentialForward.fog[5].server[0] rho 0.9999697804451
scalar FogSequentialForward.fog[5].server[0] congestionRatio 0
scalar FogSequentialForward.fog[5].server[0] totalJobs 822347
scalar FogSequentialForward.fog[5].server[0] droppedJobsQueue 5
scalar FogSequentialForward.fog[5].server[0] droppedJobsTimout 0
scalar FogSequentialForward.fog[5].server[0] droppedJobsSLA 242257
scalar FogSequentialForward.fog[5].server[0] droppedJobsTotal 242262
scalar FogSequentialForward.fog[6].dispatcher localJobs 822812
scalar FogSequentialForward.fog[6].dispatcher internalJobs 902331
scalar FogSequentialForward.fog[6].dispatcher externalJobs 3142334
scalar FogSequentialForward.fog[6].dispatcher remoteJobs 3142772
scalar FogSequentialForward.fog[6].dispatcher probeQueries 0
scalar FogSequentialForward.fog[6].dispatcher probeAnswers 0
scalar FogSequentialForward.fog[6].dispatcher droppedJobsSLA 79081
scalar FogSequentialForward.fog[6].dispatcher jobs_class_1 4044665
scalar FogSequentialForward.fog[6].dispatcher remoteJobs_class_1 3142772
scalar FogSequentialForward.fog[6].dispatcher localJobs_class_1 822812
scalar FogSequentialForward.fog[6].dispatcher droppedJobsSLA_class_1 79081
scalar FogSequentialForward.fog[6].server[0] rho 0.99996507167816
scalar FogSequentialForward.fog[6].server[0] congestionRatio 0
scalar FogSequentialForward.fog[6].server[0] totalJobs 822812
scalar FogSequentialForward.fog[6].server[0] droppedJobsQueue 4
scalar FogSequentialForward.fog[6].server[0] droppedJobsTimout 0
scalar FogSequentialForward.fog[6].server[0] droppedJobsSLA 242719
scalar FogSequentialForward.fog[6].server[0] droppedJobsTotal 242723
scalar FogSequentialForward.fog[7].dispatcher localJobs 822313
scalar FogSequentialForward.fog[7].dispatcher internalJobs 904164
scalar FogSequentialForward.fog[7].dispatcher externalJobs 3140211
scalar FogSequentialForward.fog[7].dispatcher remoteJobs 3143217
scalar FogSequentialForward.fog[7].dispatcher probeQueries 0
scalar FogSequentialForward.fog[7].dispatcher probeAnswers 0
scalar FogSequentialForward.fog[7].dispatcher droppedJobsSLA 78845
scalar FogSequentialForward.fog[7].dispatcher jobs_class_1 4044375
scalar FogSequentialForward.fog[7].dispatcher remoteJobs_class_1 3143217
scalar FogSequentialForward.fog[7].dispatcher localJobs_class_1 822313
scalar FogSequentialForward.fog[7].dispatcher droppedJobsSLA_class_1 78845
scalar FogSequentialForward.fog[7].server[0] rho 0.99996250867844
scalar FogSequentialForward.fog[7].server[0] congestionRatio 0
scalar FogSequentialForward.fog[7].server[0] totalJobs 822313
scalar FogSequentialForward.fog[7].server[0] droppedJobsQueue 1
scalar FogSequentialForward.fog[7].server[0] droppedJobsTimout 0
scalar FogSequentialForward.fog[7].server[0] droppedJobsSLA 242175
scalar FogSequentialForward.fog[7].server[0] droppedJobsTotal 242176
scalar FogSequentialForward.fog[8].dispatcher localJobs 823069
scalar FogSequentialForward.fog[8].dispatcher internalJobs 901128
scalar FogSequentialForward.fog[8].dispatcher externalJobs 3141636
scalar FogSequentialForward.fog[8].dispatcher remoteJobs 3141212
scalar FogSequentialForward.fog[8].dispatcher probeQueries 0
scalar FogSequentialForward.fog[8].dispatcher probeAnswers 0
scalar FogSequentialForward.fog[8].dispatcher droppedJobsSLA 78483
scalar FogSequentialForward.fog[8].dispatcher jobs_class_1 4042764
scalar FogSequentialForward.fog[8].dispatcher remoteJobs_class_1 3141212
scalar FogSequentialForward.fog[8].dispatcher localJobs_class_1 823069
scalar FogSequentialForward.fog[8].dispatcher droppedJobsSLA_class_1 78483
scalar FogSequentialForward.fog[8].server[0] rho 0.99996370077133
scalar FogSequentialForward.fog[8].server[0] congestionRatio 0
scalar FogSequentialForward.fog[8].server[0] totalJobs 823069
scalar FogSequentialForward.fog[8].server[0] droppedJobsQueue 3
scalar FogSequentialForward.fog[8].server[0] droppedJobsTimout 0
scalar FogSequentialForward.fog[8].server[0] droppedJobsSLA 242997
scalar FogSequentialForward.fog[8].server[0] droppedJobsTotal 243000
scalar FogSequentialForward.fog[9].dispatcher localJobs 822899
scalar FogSequentialForward.fog[9].dispatcher internalJobs 901223
scalar FogSequentialForward.fog[9].dispatcher externalJobs 3141412
scalar FogSequentialForward.fog[9].dispatcher remoteJobs 3141153
scalar FogSequentialForward.fog[9].dispatcher probeQueries 0
scalar FogSequentialForward.fog[9].dispatcher probeAnswers 0
scalar FogSequentialForward.fog[9].dispatcher droppedJobsSLA 78583
scalar FogSequentialForward.fog[9].dispatcher jobs_class_1 4042635
scalar FogSequentialForward.fog[9].dispatcher remoteJobs_class_1 3141153
scalar FogSequentialForward.fog[9].dispatcher localJobs_class_1 822899
scalar FogSequentialForward.fog[9].dispatcher droppedJobsSLA_class_1 78583
scalar FogSequentialForward.fog[9].server[0] rho 0.9999675154686
scalar FogSequentialForward.fog[9].server[0] congestionRatio 0
scalar FogSequentialForward.fog[9].server[0] totalJobs 822899
scalar FogSequentialForward.fog[9].server[0] droppedJobsQueue 4
scalar FogSequentialForward.fog[9].server[0] droppedJobsTimout 0
scalar FogSequentialForward.fog[9].server[0] droppedJobsSLA 242918
scalar FogSequentialForward.fog[9].server[0] droppedJobsTotal 242922
scalar FogSequentialForward.fog[10].dispatcher localJobs 822417
scalar FogSequentialForward.fog[10].dispatcher internalJobs 901260
scalar FogSequentialForward.fog[10].dispatcher externalJobs 3140714
scalar FogSequentialForward.fog[10].dispatcher remoteJobs 3140494
scalar FogSequentialForward.fog[10].dispatcher probeQueries 0
scalar FogSequentialForward.fog[10].dispatcher probeAnswers 0
scalar FogSequentialForward.fog[10].dispatcher droppedJobsSLA 79063
scalar FogSequentialForward.fog[10].dispatcher jobs_class_1 4041974
scalar FogSequentialForward.fog[10].dispatcher remoteJobs_class_1 3140494
scalar FogSequentialForward.fog[10].dispatcher localJobs_class_1 822417
scalar FogSequentialForward.fog[10].dispatcher droppedJobsSLA_class_1 79063
scalar FogSequentialForward.fog[10].server[0] rho 0.99996906518936
scalar FogSequentialForward.fog[10].server[0] congestionRatio 0
scalar FogSequentialForward.fog[10].server[0] totalJobs 822417
scalar FogSequentialForward.fog[10].server[0] droppedJobsQueue 4
scalar FogSequentialForward.fog[10].server[0] droppedJobsTimout 0
scalar FogSequentialForward.fog[10].server[0] droppedJobsSLA 242746
scalar FogSequentialForward.fog[10].server[0] droppedJobsTotal 242750
scalar FogSequentialForward.fog[11].dispatcher localJobs 823388
scalar FogSequentialForward.fog[11].dispatcher internalJobs 900430
scalar FogSequentialForward.fog[11].dispatcher externalJobs 3140179
scalar FogSequentialForward.fog[11].dispatcher remoteJobs 3138776
scalar FogSequentialForward.fog[11].dispatcher probeQueries 0
scalar FogSequentialForward.fog[11].dispatcher probeAnswers 0
scalar FogSequentialForward.fog[11].dispatcher droppedJobsSLA 78445
scalar FogSequentialForward.fog[11].dispatcher jobs_class_1 4040609
scalar FogSequentialForward.fog[11].dispatcher remoteJobs_class_1 3138776
scalar FogSequentialForward.fog[11].dispatcher localJobs_class_1 823388
scalar FogSequentialForward.fog[11].dispatcher droppedJobsSLA_class_1 78445
scalar FogSequentialForward.fog[11].server[0] rho 0.99997001886368
scalar FogSequentialForward.fog[11].server[0] congestionRatio 0
scalar FogSequentialForward.fog[11].server[0] totalJobs 823388
scalar FogSequentialForward.fog[11].server[0] droppedJobsQueue 4
scalar FogSequentialForward.fog[11].server[0] droppedJobsTimout 0
scalar FogSequentialForward.fog[11].server[0] droppedJobsSLA 243241
scalar FogSequentialForward.fog[11].server[0] droppedJobsTotal 243245
scalar FogSequentialForward.fog[12].dispatcher localJobs 822828
scalar FogSequentialForward.fog[12].dispatcher internalJobs 903334
scalar FogSequentialForward.fog[12].dispatcher externalJobs 3138758
scalar FogSequentialForward.fog[12].dispatcher remoteJobs 3140674
scalar FogSequentialForward.fog[12].dispatcher probeQueries 0
scalar FogSequentialForward.fog[12].dispatcher probeAnswers 0
scalar FogSequentialForward.fog[12].dispatcher droppedJobsSLA 78590
scalar FogSequentialForward.fog[12].dispatcher jobs_class_1 4042092
scalar FogSequentialForward.fog[12].dispatcher remoteJobs_class_1 3140674
scalar FogSequentialForward.fog[12].dispatcher localJobs_class_1 822828
scalar FogSequentialForward.fog[12].dispatcher droppedJobsSLA_class_1 78590
scalar FogSequentialForward.fog[12].server[0] rho 0.99996244907379
scalar FogSequentialForward.fog[12].server[0] congestionRatio 0
scalar FogSequentialForward.fog[12].server[0] totalJobs 822828
scalar FogSequentialForward.fog[12].server[0] droppedJobsQueue 1
scalar FogSequentialForward.fog[12].server[0] droppedJobsTimout 0
scalar FogSequentialForward.fog[12].server[0] droppedJobsSLA 242532
scalar FogSequentialForward.fog[12].server[0] droppedJobsTotal 242533
scalar FogSequentialForward.fog[13].dispatcher localJobs 822914
scalar FogSequentialForward.fog[13].dispatcher internalJobs 900889
scalar FogSequentialForward.fog[13].dispatcher externalJobs 3139441
scalar FogSequentialForward.fog[13].dispatcher remoteJobs 3138459
scalar FogSequentialForward.fog[13].dispatcher probeQueries 0
scalar FogSequentialForward.fog[13].dispatcher probeAnswers 0
scalar FogSequentialForward.fog[13].dispatcher droppedJobsSLA 78957
scalar FogSequentialForward.fog[13].dispatcher jobs_class_1 4040330
scalar FogSequentialForward.fog[13].dispatcher remoteJobs_class_1 3138459
scalar FogSequentialForward.fog[13].dispatcher localJobs_class_1 822914
scalar FogSequentialForward.fog[13].dispatcher droppedJobsSLA_class_1 78957
scalar FogSequentialForward.fog[13].server[0] rho 0.99996656179428
scalar FogSequentialForward.fog[13].server[0] congestionRatio 0
scalar FogSequentialForward.fog[13].server[0] totalJobs 822914
scalar FogSequentialForward.fog[13].server[0] droppedJobsQueue 3
scalar FogSequentialForward.fog[13].server[0] droppedJobsTimout 0
scalar FogSequentialForward.fog[13].server[0] droppedJobsSLA 242486
scalar FogSequentialForward.fog[13].server[0] droppedJobsTotal 242489
scalar FogSequentialForward.fog[14].dispatcher localJobs 822671
scalar FogSequentialForward.fog[14].dispatcher internalJobs 903724
scalar FogSequentialForward.fog[14].dispatcher externalJobs 3142591
scalar FogSequentialForward.fog[14].dispatcher remoteJobs 3144510
scalar FogSequentialForward.fog[14].dispatcher probeQueries 0
scalar FogSequentialForward.fog[14].dispatcher probeAnswers 0
scalar FogSequentialForward.fog[14].dispatcher droppedJobsSLA 79134
scalar FogSequentialForward.fog[14].dispatcher jobs_class_1 4046315
scalar FogSequentialForward.fog[14].dispatcher remoteJobs_class_1 3144510
scalar FogSequentialForward.fog[14].dispatcher localJobs_class_1 822671
scalar FogSequentialForward.fog[14].dispatcher droppedJobsSLA_class_1 79134
scalar FogSequentialForward.fog[14].server[0] rho 0.99996769428253
scalar FogSequentialForward.fog[14].server[0] congestionRatio 0
scalar FogSequentialForward.fog[14].server[0] totalJobs 822671
scalar FogSequentialForward.fog[14].server[0] droppedJobsQueue 3
scalar FogSequentialForward.fog[14].server[0] droppedJobsTimout 0
scalar FogSequentialForward.fog[14].server[0] droppedJobsSLA 243193
scalar FogSequentialForward.fog[14].server[0] droppedJobsTotal 243196
scalar FogSequentialForward.fog[15].dispatcher localJobs 823557
scalar FogSequentialForward.fog[15].dispatcher internalJobs 900640
scalar FogSequentialForward.fog[15].dispatcher externalJobs 3143847
scalar FogSequentialForward.fog[15].dispatcher remoteJobs 3141906
scalar FogSequentialForward.fog[15].dispatcher probeQueries 0
scalar FogSequentialForward.fog[15].dispatcher probeAnswers 0
scalar FogSequentialForward.fog[15].dispatcher droppedJobsSLA 79024
scalar FogSequentialForward.fog[15].dispatcher jobs_class_1 4044487
scalar FogSequentialForward.fog[15].dispatcher remoteJobs_class_1 3141906
scalar FogSequentialForward.fog[15].dispatcher localJobs_class_1 823557
scalar FogSequentialForward.fog[15].dispatcher droppedJobsSLA_class_1 79024
scalar FogSequentialForward.fog[15].server[0] rho 0.99996119737625
scalar FogSequentialForward.fog[15].server[0] congestionRatio 0
scalar FogSequentialForward.fog[15].server[0] totalJobs 823557
scalar FogSequentialForward.fog[15].server[0] droppedJobsQueue 6
scalar FogSequentialForward.fog[15].server[0] droppedJobsTimout 0
scalar FogSequentialForward.fog[15].server[0] droppedJobsSLA 244495
scalar FogSequentialForward.fog[15].server[0] droppedJobsTotal 244501
scalar FogSequentialForward.fog[16].dispatcher localJobs 822463
scalar FogSequentialForward.fog[16].dispatcher internalJobs 899902
scalar FogSequentialForward.fog[16].dispatcher externalJobs 3138946
scalar FogSequentialForward.fog[16].dispatcher remoteJobs 3137350
scalar FogSequentialForward.fog[16].dispatcher probeQueries 0
scalar FogSequentialForward.fog[16].dispatcher probeAnswers 0
scalar FogSequentialForward.fog[16].dispatcher droppedJobsSLA 79035
scalar FogSequentialForward.fog[16].dispatcher jobs_class_1 4038848
scalar FogSequentialForward.fog[16].dispatcher remoteJobs_class_1 3137350
scalar FogSequentialForward.fog[16].dispatcher localJobs_class_1 822463
scalar FogSequentialForward.fog[16].dispatcher droppedJobsSLA_class_1 79035
scalar FogSequentialForward.fog[16].server[0] rho 0.99996519088745
scalar FogSequentialForward.fog[16].server[0] congestionRatio 0
scalar FogSequentialForward.fog[16].server[0] totalJobs 822463
scalar FogSequentialForward.fog[16].server[0] droppedJobsQueue 2
scalar FogSequentialForward.fog[16].server[0] droppedJobsTimout 0
scalar FogSequentialForward.fog[16].server[0] droppedJobsSLA 242461
scalar FogSequentialForward.fog[16].server[0] droppedJobsTotal 242463
scalar FogSequentialForward.fog[17].dispatcher localJobs 823113
scalar FogSequentialForward.fog[17].dispatcher internalJobs 899892
scalar FogSequentialForward.fog[17].dispatcher externalJobs 3140716
scalar FogSequentialForward.fog[17].dispatcher remoteJobs 3138988
scalar FogSequentialForward.fog[17].dispatcher probeQueries 0
scalar FogSequentialForward.fog[17].dispatcher probeAnswers 0
scalar FogSequentialForward.fog[17].dispatcher droppedJobsSLA 78507
scalar FogSequentialForward.fog[17].dispatcher jobs_class_1 4040608
scalar FogSequentialForward.fog[17].dispatcher remoteJobs_class_1 3138988
scalar FogSequentialForward.fog[17].dispatcher localJobs_class_1 823113
scalar FogSequentialForward.fog[17].dispatcher droppedJobsSLA_class_1 78507
scalar FogSequentialForward.fog[17].server[0] rho 0.99996739625931
scalar FogSequentialForward.fog[17].server[0] congestionRatio 0
scalar FogSequentialForward.fog[17].server[0] totalJobs 823113
scalar FogSequentialForward.fog[17].server[0] droppedJobsQueue 4
scalar FogSequentialForward.fog[17].server[0] droppedJobsTimout 0
scalar FogSequentialForward.fog[17].server[0] droppedJobsSLA 243301
scalar FogSequentialForward.fog[17].server[0] droppedJobsTotal 243305
scalar FogSequentialForward.fog[18].dispatcher localJobs 822535
scalar FogSequentialForward.fog[18].dispatcher internalJobs 900415
scalar FogSequentialForward.fog[18].dispatcher externalJobs 3140428
scalar FogSequentialForward.fog[18].dispatcher remoteJobs 3139758
scalar FogSequentialForward.fog[18].dispatcher probeQueries 0
scalar FogSequentialForward.fog[18].dispatcher probeAnswers 0
scalar FogSequentialForward.fog[18].dispatcher droppedJobsSLA 78550
scalar FogSequentialForward.fog[18].dispatcher jobs_class_1 4040843
scalar FogSequentialForward.fog[18].dispatcher remoteJobs_class_1 3139758
scalar FogSequentialForward.fog[18].dispatcher localJobs_class_1 822535
scalar FogSequentialForward.fog[18].dispatcher droppedJobsSLA_class_1 78550
scalar FogSequentialForward.fog[18].server[0] rho 0.99995797872543
scalar FogSequentialForward.fog[18].server[0] congestionRatio 0
scalar FogSequentialForward.fog[18].server[0] totalJobs 822535
scalar FogSequentialForward.fog[18].server[0] droppedJobsQueue 5
scalar FogSequentialForward.fog[18].server[0] droppedJobsTimout 0
scalar FogSequentialForward.fog[18].server[0] droppedJobsSLA 242653
scalar FogSequentialForward.fog[18].server[0] droppedJobsTotal 242658
scalar FogSequentialForward.fog[19].dispatcher localJobs 822825
scalar FogSequentialForward.fog[19].dispatcher internalJobs 902674
scalar FogSequentialForward.fog[19].dispatcher externalJobs 3139511
scalar FogSequentialForward.fog[19].dispatcher remoteJobs 3140777
scalar FogSequentialForward.fog[19].dispatcher probeQueries 0
scalar FogSequentialForward.fog[19].dispatcher probeAnswers 0
scalar FogSequentialForward.fog[19].dispatcher droppedJobsSLA 78583
scalar FogSequentialForward.fog[19].dispatcher jobs_class_1 4042185
scalar FogSequentialForward.fog[19].dispatcher remoteJobs_class_1 3140777
scalar FogSequentialForward.fog[19].dispatcher localJobs_class_1 822825
scalar FogSequentialForward.fog[19].dispatcher droppedJobsSLA_class_1 78583
scalar FogSequentialForward.fog[19].server[0] rho 0.9999612569809
scalar FogSequentialForward.fog[19].server[0] congestionRatio 0
scalar FogSequentialForward.fog[19].server[0] totalJobs 822825
scalar FogSequentialForward.fog[19].server[0] droppedJobsQueue 2
scalar FogSequentialForward.fog[19].server[0] droppedJobsTimout 0
scalar FogSequentialForward.fog[19].server[0] droppedJobsSLA 242753
scalar FogSequentialForward.fog[19].server[0] droppedJobsTotal 242755
scalar FogSequentialForward.fog[20].dispatcher localJobs 822213
scalar FogSequentialForward.fog[20].dispatcher internalJobs 898984
scalar FogSequentialForward.fog[20].dispatcher externalJobs 3140903
scalar FogSequentialForward.fog[20].dispatcher remoteJobs 3139073
scalar FogSequentialForward.fog[20].dispatcher probeQueries 0
scalar FogSequentialForward.fog[20].dispatcher probeAnswers 0
scalar FogSequentialForward.fog[20].dispatcher droppedJobsSLA 78601
scalar FogSequentialForward.fog[20].dispatcher jobs_class_1 4039887
scalar FogSequentialForward.fog[20].dispatcher remoteJobs_class_1 3139073
scalar FogSequentialForward.fog[20].dispatcher localJobs_class_1 822213
scalar FogSequentialForward.fog[20].dispatcher droppedJobsSLA_class_1 78601
scalar FogSequentialForward.fog[20].server[0] rho 0.9999628663063
scalar FogSequentialForward.fog[20].server[0] congestionRatio 0
scalar FogSequentialForward.fog[20].server[0] totalJobs 822213
scalar FogSequentialForward.fog[20].server[0] droppedJobsQueue 5
scalar FogSequentialForward.fog[20].server[0] droppedJobsTimout 0
scalar FogSequentialForward.fog[20].server[0] droppedJobsSLA 242468
scalar FogSequentialForward.fog[20].server[0] droppedJobsTotal 242473
scalar FogSequentialForward.fog[21].dispatcher localJobs 823196
scalar FogSequentialForward.fog[21].dispatcher internalJobs 901442
scalar FogSequentialForward.fog[21].dispatcher externalJobs 3143914
scalar FogSequentialForward.fog[21].dispatcher remoteJobs 3143407
scalar FogSequentialForward.fog[21].dispatcher probeQueries 0
scalar FogSequentialForward.fog[21].dispatcher probeAnswers 0
scalar FogSequentialForward.fog[21].dispatcher droppedJobsSLA 78753
scalar FogSequentialForward.fog[21].dispatcher jobs_class_1 4045356
scalar FogSequentialForward.fog[21].dispatcher remoteJobs_class_1 3143407
scalar FogSequentialForward.fog[21].dispatcher localJobs_class_1 823196
scalar FogSequentialForward.fog[21].dispatcher droppedJobsSLA_class_1 78753
scalar FogSequentialForward.fog[21].server[0] rho 0.99996101856232
scalar FogSequentialForward.fog[21].server[0] congestionRatio 0
scalar FogSequentialForward.fog[21].server[0] totalJobs 823196
scalar FogSequentialForward.fog[21].server[0] droppedJobsQueue 1
scalar FogSequentialForward.fog[21].server[0] droppedJobsTimout 0
scalar FogSequentialForward.fog[21].server[0] droppedJobsSLA 243352
scalar FogSequentialForward.fog[21].server[0] droppedJobsTotal 243353
scalar FogSequentialForward.fog[22].dispatcher localJobs 822861
scalar FogSequentialForward.fog[22].dispatcher internalJobs 902016
scalar FogSequentialForward.fog[22].dispatcher externalJobs 3140505
scalar FogSequentialForward.fog[22].dispatcher remoteJobs 3140858
scalar FogSequentialForward.fog[22].dispatcher probeQueries 0
scalar FogSequentialForward.fog[22].dispatcher probeAnswers 0
scalar FogSequentialForward.fog[22].dispatcher droppedJobsSLA 78802
scalar FogSequentialForward.fog[22].dispatcher jobs_class_1 4042521
scalar FogSequentialForward.fog[22].dispatcher remoteJobs_class_1 3140858
scalar FogSequentialForward.fog[22].dispatcher localJobs_class_1 822861
scalar FogSequentialForward.fog[22].dispatcher droppedJobsSLA_class_1 78802
scalar FogSequentialForward.fog[22].server[0] rho 0.99996596574783
scalar FogSequentialForward.fog[22].server[0] congestionRatio 0
scalar FogSequentialForward.fog[22].server[0] totalJobs 822861
scalar FogSequentialForward.fog[22].server[0] droppedJobsQueue 2
scalar FogSequentialForward.fog[22].server[0] droppedJobsTimout 0
scalar FogSequentialForward.fog[22].server[0] droppedJobsSLA 243007
scalar FogSequentialForward.fog[22].server[0] droppedJobsTotal 243009
scalar FogSequentialForward.fog[23].dispatcher localJobs 823436
scalar FogSequentialForward.fog[23].dispatcher internalJobs 902468
scalar FogSequentialForward.fog[23].dispatcher externalJobs 3142536
scalar FogSequentialForward.fog[23].dispatcher remoteJobs 3142927
scalar FogSequentialForward.fog[23].dispatcher probeQueries 0
scalar FogSequentialForward.fog[23].dispatcher probeAnswers 0
scalar FogSequentialForward.fog[23].dispatcher droppedJobsSLA 78641
scalar FogSequentialForward.fog[23].dispatcher jobs_class_1 4045004
scalar FogSequentialForward.fog[23].dispatcher remoteJobs_class_1 3142927
scalar FogSequentialForward.fog[23].dispatcher localJobs_class_1 823436
scalar FogSequentialForward.fog[23].dispatcher droppedJobsSLA_class_1 78641
scalar FogSequentialForward.fog[23].server[0] rho 0.99996358156204
scalar FogSequentialForward.fog[23].server[0] congestionRatio 0
scalar FogSequentialForward.fog[23].server[0] totalJobs 823436
scalar FogSequentialForward.fog[23].server[0] droppedJobsQueue 1
scalar FogSequentialForward.fog[23].server[0] droppedJobsTimout 0
scalar FogSequentialForward.fog[23].server[0] droppedJobsSLA 243266
scalar FogSequentialForward.fog[23].server[0] droppedJobsTotal 243267
scalar FogSequentialForward.fog[24].dispatcher localJobs 822329
scalar FogSequentialForward.fog[24].dispatcher internalJobs 901752
scalar FogSequentialForward.fog[24].dispatcher externalJobs 3139738
scalar FogSequentialForward.fog[24].dispatcher remoteJobs 3140281
scalar FogSequentialForward.fog[24].dispatcher probeQueries 0
scalar FogSequentialForward.fog[24].dispatcher probeAnswers 0
scalar FogSequentialForward.fog[24].dispatcher droppedJobsSLA 78880
scalar FogSequentialForward.fog[24].dispatcher jobs_class_1 4041490
scalar FogSequentialForward.fog[24].dispatcher remoteJobs_class_1 3140281
scalar FogSequentialForward.fog[24].dispatcher localJobs_class_1 822329
scalar FogSequentialForward.fog[24].dispatcher droppedJobsSLA_class_1 78880
scalar FogSequentialForward.fog[24].server[0] rho 0.99996775388718
scalar FogSequentialForward.fog[24].server[0] congestionRatio 0
scalar FogSequentialForward.fog[24].server[0] totalJobs 822329
scalar FogSequentialForward.fog[24].server[0] droppedJobsQueue 4
scalar FogSequentialForward.fog[24].server[0] droppedJobsTimout 0
scalar FogSequentialForward.fog[24].server[0] droppedJobsSLA 242162
scalar FogSequentialForward.fog[24].server[0] droppedJobsTotal 242166
scalar FogSequentialForward.fog[25].dispatcher localJobs 822755
scalar FogSequentialForward.fog[25].dispatcher internalJobs 901165
scalar FogSequentialForward.fog[25].dispatcher externalJobs 3142451
scalar FogSequentialForward.fog[25].dispatcher remoteJobs 3141749
scalar FogSequentialForward.fog[25].dispatcher probeQueries 0
scalar FogSequentialForward.fog[25].dispatcher probeAnswers 0
scalar FogSequentialForward.fog[25].dispatcher droppedJobsSLA 79112
scalar FogSequentialForward.fog[25].dispatcher jobs_class_1 4043616
scalar FogSequentialForward.fog[25].dispatcher remoteJobs_class_1 3141749
scalar FogSequentialForward.fog[25].dispatcher localJobs_class_1 822755
scalar FogSequentialForward.fog[25].dispatcher droppedJobsSLA_class_1 79112
scalar FogSequentialForward.fog[25].server[0] rho 0.99996101856232
scalar FogSequentialForward.fog[25].server[0] congestionRatio 0
scalar FogSequentialForward.fog[25].server[0] totalJobs 822755
scalar FogSequentialForward.fog[25].server[0] droppedJobsQueue 3
scalar FogSequentialForward.fog[25].server[0] droppedJobsTimout 0
scalar FogSequentialForward.fog[25].server[0] droppedJobsSLA 242489
scalar FogSequentialForward.fog[25].server[0] droppedJobsTotal 242492
scalar FogSequentialForward.fog[26].dispatcher localJobs 822978
scalar FogSequentialForward.fog[26].dispatcher internalJobs 901753
scalar FogSequentialForward.fog[26].dispatcher externalJobs 3139756
scalar FogSequentialForward.fog[26].dispatcher remoteJobs 3139861
scalar FogSequentialForward.fog[26].dispatcher probeQueries 0
scalar FogSequentialForward.fog[26].dispatcher probeAnswers 0
scalar FogSequentialForward.fog[26].dispatcher droppedJobsSLA 78670
scalar FogSequentialForward.fog[26].dispatcher jobs_class_1 4041509
scalar FogSequentialForward.fog[26].dispatcher remoteJobs_class_1 3139861
scalar FogSequentialForward.fog[26].dispatcher localJobs_class_1 822978
scalar FogSequentialForward.fog[26].dispatcher droppedJobsSLA_class_1 78670
scalar FogSequentialForward.fog[26].server[0] rho 0.99995958805084
scalar FogSequentialForward.fog[26].server[0] congestionRatio 0
scalar FogSequentialForward.fog[26].server[0] totalJobs 822978
scalar FogSequentialForward.fog[26].server[0] droppedJobsQueue 2
scalar FogSequentialForward.fog[26].server[0] droppedJobsTimout 0
scalar FogSequentialForward.fog[26].server[0] droppedJobsSLA 243338
scalar FogSequentialForward.fog[26].server[0] droppedJobsTotal 243340
scalar FogSequentialForward.fog[27].dispatcher localJobs 823116
scalar FogSequentialForward.fog[27].dispatcher internalJobs 901995
scalar FogSequentialForward.fog[27].dispatcher externalJobs 3142178
scalar FogSequentialForward.fog[27].dispatcher remoteJobs 3142218
scalar FogSequentialForward.fog[27].dispatcher probeQueries 0
scalar FogSequentialForward.fog[27].dispatcher probeAnswers 0
scalar FogSequentialForward.fog[27].dispatcher droppedJobsSLA 78839
scalar FogSequentialForward.fog[27].dispatcher jobs_class_1 4044173
scalar FogSequentialForward.fog[27].dispatcher remoteJobs_class_1 3142218
scalar FogSequentialForward.fog[27].dispatcher localJobs_class_1 823116
scalar FogSequentialForward.fog[27].dispatcher droppedJobsSLA_class_1 78839
scalar FogSequentialForward.fog[27].server[0] rho 0.99995768070221
scalar FogSequentialForward.fog[27].server[0] congestionRatio 0
scalar FogSequentialForward.fog[27].server[0] totalJobs 823116
scalar FogSequentialForward.fog[27].server[0] droppedJobsQueue 5
scalar FogSequentialForward.fog[27].server[0] droppedJobsTimout 0
scalar FogSequentialForward.fog[27].server[0] droppedJobsSLA 243269
scalar FogSequentialForward.fog[27].server[0] droppedJobsTotal 243274
scalar FogSequentialForward.fog[28].dispatcher localJobs 821969
scalar FogSequentialForward.fog[28].dispatcher internalJobs 900235
scalar FogSequentialForward.fog[28].dispatcher externalJobs 3140942
scalar FogSequentialForward.fog[28].dispatcher remoteJobs 3140598
scalar FogSequentialForward.fog[28].dispatcher probeQueries 0
scalar FogSequentialForward.fog[28].dispatcher probeAnswers 0
scalar FogSequentialForward.fog[28].dispatcher droppedJobsSLA 78610
scalar FogSequentialForward.fog[28].dispatcher jobs_class_1 4041177
scalar FogSequentialForward.fog[28].dispatcher remoteJobs_class_1 3140598
scalar FogSequentialForward.fog[28].dispatcher localJobs_class_1 821969
scalar FogSequentialForward.fog[28].dispatcher droppedJobsSLA_class_1 78610
scalar FogSequentialForward.fog[28].server[0] rho 0.99995708465576
scalar FogSequentialForward.fog[28].server[0] congestionRatio 0
scalar FogSequentialForward.fog[28].server[0] totalJobs 821969
scalar FogSequentialForward.fog[28].server[0] droppedJobsQueue 3
scalar FogSequentialForward.fog[28].server[0] droppedJobsTimout 0
scalar FogSequentialForward.fog[28].server[0] droppedJobsSLA 242007
scalar FogSequentialForward.fog[28].server[0] droppedJobsTotal 242010
scalar FogSequentialForward.fog[29].dispatcher localJobs 823009
scalar FogSequentialForward.fog[29].dispatcher internalJobs 901973
scalar FogSequentialForward.fog[29].dispatcher externalJobs 3138598
scalar FogSequentialForward.fog[29].dispatcher remoteJobs 3138914
scalar FogSequentialForward.fog[29].dispatcher probeQueries 0
scalar FogSequentialForward.fog[29].dispatcher probeAnswers 0
scalar FogSequentialForward.fog[29].dispatcher droppedJobsSLA 78648
scalar FogSequentialForward.fog[29].dispatcher jobs_class_1 4040571
scalar FogSequentialForward.fog[29].dispatcher remoteJobs_class_1 3138914
scalar FogSequentialForward.fog[29].dispatcher localJobs_class_1 823009
scalar FogSequentialForward.fog[29].dispatcher droppedJobsSLA_class_1 78648
scalar FogSequentialForward.fog[29].server[0] rho 0.99996012449265
scalar FogSequentialForward.fog[29].server[0] congestionRatio 0
scalar FogSequentialForward.fog[29].server[0] totalJobs 823009
scalar FogSequentialForward.fog[29].server[0] droppedJobsQueue 2
scalar FogSequentialForward.fog[29].server[0] droppedJobsTimout 0
scalar FogSequentialForward.fog[29].server[0] droppedJobsSLA 242733
scalar FogSequentialForward.fog[29].server[0] droppedJobsTotal 242735
scalar FogSequentialForward.fog[30].dispatcher localJobs 822815
scalar FogSequentialForward.fog[30].dispatcher internalJobs 902343
scalar FogSequentialForward.fog[30].dispatcher externalJobs 3141824
scalar FogSequentialForward.fog[30].dispatcher remoteJobs 3141924
scalar FogSequentialForward.fog[30].dispatcher probeQueries 0
scalar FogSequentialForward.fog[30].dispatcher probeAnswers 0
scalar FogSequentialForward.fog[30].dispatcher droppedJobsSLA 79428
scalar FogSequentialForward.fog[30].dispatcher jobs_class_1 4044167
scalar FogSequentialForward.fog[30].dispatcher remoteJobs_class_1 3141924
scalar FogSequentialForward.fog[30].dispatcher localJobs_class_1 822815
scalar FogSequentialForward.fog[30].dispatcher droppedJobsSLA_class_1 79428
scalar FogSequentialForward.fog[30].server[0] rho 0.99996340274811
scalar FogSequentialForward.fog[30].server[0] congestionRatio 0
scalar FogSequentialForward.fog[30].server[0] totalJobs 822815
scalar FogSequentialForward.fog[30].server[0] droppedJobsQueue 1
scalar FogSequentialForward.fog[30].server[0] droppedJobsTimout 0
scalar FogSequentialForward.fog[30].server[0] droppedJobsSLA 243094
scalar FogSequentialForward.fog[30].server[0] droppedJobsTotal 243095
scalar FogSequentialForward.fog[31].dispatcher localJobs 822929
scalar FogSequentialForward.fog[31].dispatcher internalJobs 899855
scalar FogSequentialForward.fog[31].dispatcher externalJobs 3140118
scalar FogSequentialForward.fog[31].dispatcher remoteJobs 3138016
scalar FogSequentialForward.fog[31].dispatcher probeQueries 0
scalar FogSequentialForward.fog[31].dispatcher probeAnswers 0
scalar FogSequentialForward.fog[31].dispatcher droppedJobsSLA 79028
scalar FogSequentialForward.fog[31].dispatcher jobs_class_1 4039973
scalar FogSequentialForward.fog[31].dispatcher remoteJobs_class_1 3138016
scalar FogSequentialForward.fog[31].dispatcher localJobs_class_1 822929
scalar FogSequentialForward.fog[31].dispatcher droppedJobsSLA_class_1 79028
scalar FogSequentialForward.fog[31].server[0] rho 0.99996149539948
scalar FogSequentialForward.fog[31].server[0] congestionRatio 0
scalar FogSequentialForward.fog[31].server[0] totalJobs 822929
scalar FogSequentialForward.fog[31].server[0] droppedJobsQueue 6
scalar FogSequentialForward.fog[31].server[0] droppedJobsTimout 0
scalar FogSequentialForward.fog[31].server[0] droppedJobsSLA 243251
scalar FogSequentialForward.fog[31].server[0] droppedJobsTotal 243257
scalar FogSequentialForward.fog[32].dispatcher localJobs 823130
scalar FogSequentialForward.fog[32].dispatcher internalJobs 900597
scalar FogSequentialForward.fog[32].dispatcher externalJobs 3139973
scalar FogSequentialForward.fog[32].dispatcher remoteJobs 3138475
scalar FogSequentialForward.fog[32].dispatcher probeQueries 0
scalar FogSequentialForward.fog[32].dispatcher probeAnswers 0
scalar FogSequentialForward.fog[32].dispatcher droppedJobsSLA 78965
scalar FogSequentialForward.fog[32].dispatcher jobs_class_1 4040570
scalar FogSequentialForward.fog[32].dispatcher remoteJobs_class_1 3138475
scalar FogSequentialForward.fog[32].dispatcher localJobs_class_1 823130
scalar FogSequentialForward.fog[32].dispatcher droppedJobsSLA_class_1 78965
scalar FogSequentialForward.fog[32].server[0] rho 0.99996381998062
scalar FogSequentialForward.fog[32].server[0] congestionRatio 0
scalar FogSequentialForward.fog[32].server[0] totalJobs 823130
scalar FogSequentialForward.fog[32].server[0] droppedJobsQueue 3
scalar FogSequentialForward.fog[32].server[0] droppedJobsTimout 0
scalar FogSequentialForward.fog[32].server[0] droppedJobsSLA 243140
scalar FogSequentialForward.fog[32].server[0] droppedJobsTotal 243143
scalar FogSequentialForward.fog[33].dispatcher localJobs 822653
scalar FogSequentialForward.fog[33].dispatcher internalJobs 902180
scalar FogSequentialForward.fog[33].dispatcher externalJobs 3137112
scalar FogSequentialForward.fog[33].dispatcher remoteJobs 3138123
scalar FogSequentialForward.fog[33].dispatcher probeQueries 0
scalar FogSequentialForward.fog[33].dispatcher probeAnswers 0
scalar FogSequentialForward.fog[33].dispatcher droppedJobsSLA 78516
scalar FogSequentialForward.fog[33].dispatcher jobs_class_1 4039292
scalar FogSequentialForward.fog[33].dispatcher remoteJobs_class_1 3138123
scalar FogSequentialForward.fog[33].dispatcher localJobs_class_1 822653
scalar FogSequentialForward.fog[33].dispatcher droppedJobsSLA_class_1 78516
scalar FogSequentialForward.fog[33].server[0] rho 0.99996614456177
scalar FogSequentialForward.fog[33].server[0] congestionRatio 0
scalar FogSequentialForward.fog[33].server[0] totalJobs 822653
scalar FogSequentialForward.fog[33].server[0] droppedJobsQueue 2
scalar FogSequentialForward.fog[33].server[0] droppedJobsTimout 0
scalar FogSequentialForward.fog[33].server[0] droppedJobsSLA 242695
scalar FogSequentialForward.fog[33].server[0] droppedJobsTotal 242697
scalar FogSequentialForward.fog[34].dispatcher localJobs 823177
scalar FogSequentialForward.fog[34].dispatcher internalJobs 901729
scalar FogSequentialForward.fog[34].dispatcher externalJobs 3140809
scalar FogSequentialForward.fog[34].dispatcher remoteJobs 3140433
scalar FogSequentialForward.fog[34].dispatcher probeQueries 0
scalar FogSequentialForward.fog[34].dispatcher probeAnswers 0
scalar FogSequentialForward.fog[34].dispatcher droppedJobsSLA 78928
scalar FogSequentialForward.fog[34].dispatcher jobs_class_1 4042538
scalar FogSequentialForward.fog[34].dispatcher remoteJobs_class_1 3140433
scalar FogSequentialForward.fog[34].dispatcher localJobs_class_1 823177
scalar FogSequentialForward.fog[34].dispatcher droppedJobsSLA_class_1 78928
scalar FogSequentialForward.fog[34].server[0] rho 0.99995684623718
scalar FogSequentialForward.fog[34].server[0] congestionRatio 0
scalar FogSequentialForward.fog[34].server[0] totalJobs 823177
scalar FogSequentialForward.fog[34].server[0] droppedJobsQueue 1
scalar FogSequentialForward.fog[34].server[0] droppedJobsTimout 0
scalar FogSequentialForward.fog[34].server[0] droppedJobsSLA 242958
scalar FogSequentialForward.fog[34].server[0] droppedJobsTotal 242959
scalar FogSequentialForward.fog[35].dispatcher localJobs 822620
scalar FogSequentialForward.fog[35].dispatcher internalJobs 901638
scalar FogSequentialForward.fog[35].dispatcher externalJobs 3139783
scalar FogSequentialForward.fog[35].dispatcher remoteJobs 3139975
scalar FogSequentialForward.fog[35].dispatcher probeQueries 0
scalar FogSequentialForward.fog[35].dispatcher probeAnswers 0
scalar FogSequentialForward.fog[35].dispatcher droppedJobsSLA 78826
scalar FogSequentialForward.fog[35].dispatcher jobs_class_1 4041421
scalar FogSequentialForward.fog[35].dispatcher remoteJobs_class_1 3139975
scalar FogSequentialForward.fog[35].dispatcher localJobs_class_1 822620
scalar FogSequentialForward.fog[35].dispatcher droppedJobsSLA_class_1 78826
scalar FogSequentialForward.fog[35].server[0] rho 0.99996668100357
scalar FogSequentialForward.fog[35].server[0] congestionRatio 0
scalar FogSequentialForward.fog[35].server[0] totalJobs 822620
scalar FogSequentialForward.fog[35].server[0] droppedJobsQueue 7
scalar FogSequentialForward.fog[35].server[0] droppedJobsTimout 0
scalar FogSequentialForward.fog[35].server[0] droppedJobsSLA 242388
scalar FogSequentialForward.fog[35].server[0] droppedJobsTotal 242395
scalar FogSequentialForward.fog[36].dispatcher localJobs 822560
scalar FogSequentialForward.fog[36].dispatcher internalJobs 901169
scalar FogSequentialForward.fog[36].dispatcher externalJobs 3139945
scalar FogSequentialForward.fog[36].dispatcher remoteJobs 3139652
scalar FogSequentialForward.fog[36].dispatcher probeQueries 0
scalar FogSequentialForward.fog[36].dispatcher probeAnswers 0
scalar FogSequentialForward.fog[36].dispatcher droppedJobsSLA 78902
scalar FogSequentialForward.fog[36].dispatcher jobs_class_1 4041114
scalar FogSequentialForward.fog[36].dispatcher remoteJobs_class_1 3139652
scalar FogSequentialForward.fog[36].dispatcher localJobs_class_1 822560
scalar FogSequentialForward.fog[36].dispatcher droppedJobsSLA_class_1 78902
scalar FogSequentialForward.fog[36].server[0] rho 0.99997043609619
scalar FogSequentialForward.fog[36].server[0] congestionRatio 0
scalar FogSequentialForward.fog[36].server[0] totalJobs 822560
scalar FogSequentialForward.fog[36].server[0] droppedJobsQueue 5
scalar FogSequentialForward.fog[36].server[0] droppedJobsTimout 0
scalar FogSequentialForward.fog[36].server[0] droppedJobsSLA 242392
scalar FogSequentialForward.fog[36].server[0] droppedJobsTotal 242397
scalar FogSequentialForward.fog[37].dispatcher localJobs 822920
scalar FogSequentialForward.fog[37].dispatcher internalJobs 903891
scalar FogSequentialForward.fog[37].dispatcher externalJobs 3142144
scalar FogSequentialForward.fog[37].dispatcher remoteJobs 3144384
scalar FogSequentialForward.fog[37].dispatcher probeQueries 0
scalar FogSequentialForward.fog[37].dispatcher probeAnswers 0
scalar FogSequentialForward.fog[37].dispatcher droppedJobsSLA 78731
scalar FogSequentialForward.fog[37].dispatcher jobs_class_1 4046035
scalar FogSequentialForward.fog[37].dispatcher remoteJobs_class_1 3144384
scalar FogSequentialForward.fog[37].dispatcher localJobs_class_1 822920
scalar FogSequentialForward.fog[37].dispatcher droppedJobsSLA_class_1 78731
scalar FogSequentialForward.fog[37].server[0] rho 0.99995899200439
scalar FogSequentialForward.fog[37].server[0] congestionRatio 0
scalar FogSequentialForward.fog[37].server[0] totalJobs 822920
scalar FogSequentialForward.fog[37].server[0] droppedJobsQueue 1
scalar FogSequentialForward.fog[37].server[0] droppedJobsTimout 0
scalar FogSequentialForward.fog[37].server[0] droppedJobsSLA 242462
scalar FogSequentialForward.fog[37].server[0] droppedJobsTotal 242463
scalar FogSequentialForward.fog[38].dispatcher localJobs 822111
scalar FogSequentialForward.fog[38].dispatcher internalJobs 899571
scalar FogSequentialForward.fog[38].dispatcher externalJobs 3139215
scalar FogSequentialForward.fog[38].dispatcher remoteJobs 3138210
scalar FogSequentialForward.fog[38].dispatcher probeQueries 0
scalar FogSequentialForward.fog[38].dispatcher probeAnswers 0
scalar FogSequentialForward.fog[38].dispatcher droppedJobsSLA 78465
scalar FogSequentialForward.fog[38].dispatcher jobs_class_1 4038786
scalar FogSequentialForward.fog[38].dispatcher remoteJobs_class_1 3138210
scalar FogSequentialForward.fog[38].dispatcher localJobs_class_1 822111
scalar FogSequentialForward.fog[38].dispatcher droppedJobsSLA_class_1 78465
scalar FogSequentialForward.fog[38].server[0] rho 0.99996262788773
scalar FogSequentialForward.fog[38].server[0] congestionRatio 0
scalar FogSequentialForward.fog[38].server[0] totalJobs 822111
scalar FogSequentialForward.fog[38].server[0] droppedJobsQueue 6
scalar FogSequentialForward.fog[38].server[0] droppedJobsTimout 0
scalar FogSequentialForward.fog[38].server[0] droppedJobsSLA 242098
scalar FogSequentialForward.fog[38].server[0] droppedJobsTotal 242104
scalar FogSequentialForward.fog[39].dispatcher localJobs 823355
scalar FogSequentialForward.fog[39].dispatcher internalJobs 900949
scalar FogSequentialForward.fog[39].dispatcher externalJobs 3142969
scalar FogSequentialForward.fog[39].dispatcher remoteJobs 3141333
scalar FogSequentialForward.fog[39].dispatcher probeQueries 0
scalar FogSequentialForward.fog[39].dispatcher probeAnswers 0
scalar FogSequentialForward.fog[39].dispatcher droppedJobsSLA 79230
scalar FogSequentialForward.fog[39].dispatcher jobs_class_1 4043918
scalar FogSequentialForward.fog[39].dispatcher remoteJobs_class_1 3141333
scalar FogSequentialForward.fog[39].dispatcher localJobs_class_1 823355
scalar FogSequentialForward.fog[39].dispatcher droppedJobsSLA_class_1 79230
scalar FogSequentialForward.fog[39].server[0] rho 0.99996334314346
scalar FogSequentialForward.fog[39].server[0] congestionRatio 0
scalar FogSequentialForward.fog[39].server[0] totalJobs 823355
scalar FogSequentialForward.fog[39].server[0] droppedJobsQueue 5
scalar FogSequentialForward.fog[39].server[0] droppedJobsTimout 0
scalar FogSequentialForward.fog[39].server[0] droppedJobsSLA 243298
scalar FogSequentialForward.fog[39].server[0] droppedJobsTotal 243303
scalar FogSequentialForward.fog[40].dispatcher localJobs 822722
scalar FogSequentialForward.fog[40].dispatcher internalJobs 901711
scalar FogSequentialForward.fog[40].dispatcher externalJobs 3138361
scalar FogSequentialForward.fog[40].dispatcher remoteJobs 3138632
scalar FogSequentialForward.fog[40].dispatcher probeQueries 0
scalar FogSequentialForward.fog[40].dispatcher probeAnswers 0
scalar FogSequentialForward.fog[40].dispatcher droppedJobsSLA 78718
scalar FogSequentialForward.fog[40].dispatcher jobs_class_1 4040072
scalar FogSequentialForward.fog[40].dispatcher remoteJobs_class_1 3138632
scalar FogSequentialForward.fog[40].dispatcher localJobs_class_1 822722
scalar FogSequentialForward.fog[40].dispatcher droppedJobsSLA_class_1 78718
scalar FogSequentialForward.fog[40].server[0] rho 0.99995934963226
scalar FogSequentialForward.fog[40].server[0] congestionRatio 0
scalar FogSequentialForward.fog[40].server[0] totalJobs 822722
scalar FogSequentialForward.fog[40].server[0] droppedJobsQueue 4
scalar FogSequentialForward.fog[40].server[0] droppedJobsTimout 0
scalar FogSequentialForward.fog[40].server[0] droppedJobsSLA 242745
scalar FogSequentialForward.fog[40].server[0] droppedJobsTotal 242749
scalar FogSequentialForward.fog[41].dispatcher localJobs 822770
scalar FogSequentialForward.fog[41].dispatcher internalJobs 901652
scalar FogSequentialForward.fog[41].dispatcher externalJobs 3140645
scalar FogSequentialForward.fog[41].dispatcher remoteJobs 3140432
scalar FogSequentialForward.fog[41].dispatcher probeQueries 0
scalar FogSequentialForward.fog[41].dispatcher probeAnswers 0
scalar FogSequentialForward.fog[41].dispatcher droppedJobsSLA 79095
scalar FogSequentialForward.fog[41].dispatcher jobs_class_1 4042297
scalar FogSequentialForward.fog[41].dispatcher remoteJobs_class_1 3140432
scalar FogSequentialForward.fog[41].dispatcher localJobs_class_1 822770
scalar FogSequentialForward.fog[41].dispatcher droppedJobsSLA_class_1 79095
scalar FogSequentialForward.fog[41].server[0] rho 0.99996823072433
scalar FogSequentialForward.fog[41].server[0] congestionRatio 0
scalar FogSequentialForward.fog[41].server[0] totalJobs 822770
scalar FogSequentialForward.fog[41].server[0] droppedJobsQueue 4
scalar FogSequentialForward.fog[41].server[0] droppedJobsTimout 0
scalar FogSequentialForward.fog[41].server[0] droppedJobsSLA 242794
scalar FogSequentialForward.fog[41].server[0] droppedJobsTotal 242798
scalar FogSequentialForward.fog[42].dispatcher localJobs 822709
scalar FogSequentialForward.fog[42].dispatcher internalJobs 900978
scalar FogSequentialForward.fog[42].dispatcher externalJobs 3141183
scalar FogSequentialForward.fog[42].dispatcher remoteJobs 3141064
scalar FogSequentialForward.fog[42].dispatcher probeQueries 0
scalar FogSequentialForward.fog[42].dispatcher probeAnswers 0
scalar FogSequentialForward.fog[42].dispatcher droppedJobsSLA 78388
scalar FogSequentialForward.fog[42].dispatcher jobs_class_1 4042161
scalar FogSequentialForward.fog[42].dispatcher remoteJobs_class_1 3141064
scalar FogSequentialForward.fog[42].dispatcher localJobs_class_1 822709
scalar FogSequentialForward.fog[42].dispatcher droppedJobsSLA_class_1 78388
scalar FogSequentialForward.fog[42].server[0] rho 0.99996161460876
scalar FogSequentialForward.fog[42].server[0] congestionRatio 0
scalar FogSequentialForward.fog[42].server[0] totalJobs 822709
scalar FogSequentialForward.fog[42].server[0] droppedJobsQueue 4
scalar FogSequentialForward.fog[42].server[0] droppedJobsTimout 0
scalar FogSequentialForward.fog[42].server[0] droppedJobsSLA 242241
scalar FogSequentialForward.fog[42].server[0] droppedJobsTotal 242245
scalar FogSequentialForward.fog[43].dispatcher localJobs 822715
scalar FogSequentialForward.fog[43].dispatcher internalJobs 902113
scalar FogSequentialForward.fog[43].dispatcher externalJobs 3142749
scalar FogSequentialForward.fog[43].dispatcher remoteJobs 3142858
scalar FogSequentialForward.fog[43].dispatcher probeQueries 0
scalar FogSequentialForward.fog[43].dispatcher probeAnswers 0
scalar FogSequentialForward.fog[43].dispatcher droppedJobsSLA 79289
scalar FogSequentialForward.fog[43].dispatcher jobs_class_1 4044862
scalar FogSequentialForward.fog[43].dispatcher remoteJobs_class_1 3142858
scalar FogSequentialForward.fog[43].dispatcher localJobs_class_1 822715
scalar FogSequentialForward.fog[43].dispatcher droppedJobsSLA_class_1 79289
scalar FogSequentialForward.fog[43].server[0] rho 0.9999623298645
scalar FogSequentialForward.fog[43].server[0] congestionRatio 0
scalar FogSequentialForward.fog[43].server[0] totalJobs 822715
scalar FogSequentialForward.fog[43].server[0] droppedJobsQueue 2
scalar FogSequentialForward.fog[43].server[0] droppedJobsTimout 0
scalar FogSequentialForward.fog[43].server[0] droppedJobsSLA 242801
scalar FogSequentialForward.fog[43].server[0] droppedJobsTotal 242803
scalar FogSequentialForward.fog[44].dispatcher localJobs 822408
scalar FogSequentialForward.fog[44].dispatcher internalJobs 901790
scalar FogSequentialForward.fog[44].dispatcher externalJobs 3137815
scalar FogSequentialForward.fog[44].dispatcher remoteJobs 3138342
scalar FogSequentialForward.fog[44].dispatcher probeQueries 0
scalar FogSequentialForward.fog[44].dispatcher probeAnswers 0
scalar FogSequentialForward.fog[44].dispatcher droppedJobsSLA 78855
scalar FogSequentialForward.fog[44].dispatcher jobs_class_1 4039605
scalar FogSequentialForward.fog[44].dispatcher remoteJobs_class_1 3138342
scalar FogSequentialForward.fog[44].dispatcher localJobs_class_1 822408
scalar FogSequentialForward.fog[44].dispatcher droppedJobsSLA_class_1 78855
scalar FogSequentialForward.fog[44].server[0] rho 0.99996203184128
scalar FogSequentialForward.fog[44].server[0] congestionRatio 0
scalar FogSequentialForward.fog[44].server[0] totalJobs 822408
scalar FogSequentialForward.fog[44].server[0] droppedJobsQueue 4
scalar FogSequentialForward.fog[44].server[0] droppedJobsTimout 0
scalar FogSequentialForward.fog[44].server[0] droppedJobsSLA 241504
scalar FogSequentialForward.fog[44].server[0] droppedJobsTotal 241508
scalar FogSequentialForward.fog[45].dispatcher localJobs 822960
scalar FogSequentialForward.fog[45].dispatcher internalJobs 900603
scalar FogSequentialForward.fog[45].dispatcher externalJobs 3139984
scalar FogSequentialForward.fog[45].dispatcher remoteJobs 3139107
scalar FogSequentialForward.fog[45].dispatcher probeQueries 0
scalar FogSequentialForward.fog[45].dispatcher probeAnswers 0
scalar FogSequentialForward.fog[45].dispatcher droppedJobsSLA 78520
scalar FogSequentialForward.fog[45].dispatcher jobs_class_1 4040587
scalar FogSequentialForward.fog[45].dispatcher remoteJobs_class_1 3139107
scalar FogSequentialForward.fog[45].dispatcher localJobs_class_1 822960
scalar FogSequentialForward.fog[45].dispatcher droppedJobsSLA_class_1 78520
scalar FogSequentialForward.fog[45].server[0] rho 0.99996775388718
scalar FogSequentialForward.fog[45].server[0] congestionRatio 0
scalar FogSequentialForward.fog[45].server[0] totalJobs 822960
scalar FogSequentialForward.fog[45].server[0] droppedJobsQueue 4
scalar FogSequentialForward.fog[45].server[0] droppedJobsTimout 0
scalar FogSequentialForward.fog[45].server[0] droppedJobsSLA 242431
scalar FogSequentialForward.fog[45].server[0] droppedJobsTotal 242435
scalar FogSequentialForward.fog[46].dispatcher localJobs 823008
scalar FogSequentialForward.fog[46].dispatcher internalJobs 901236
scalar FogSequentialForward.fog[46].dispatcher externalJobs 3142793
scalar FogSequentialForward.fog[46].dispatcher remoteJobs 3141787
scalar FogSequentialForward.fog[46].dispatcher probeQueries 0
scalar FogSequentialForward.fog[46].dispatcher probeAnswers 0
scalar FogSequentialForward.fog[46].dispatcher droppedJobsSLA 79234
scalar FogSequentialForward.fog[46].dispatcher jobs_class_1 4044029
scalar FogSequentialForward.fog[46].dispatcher remoteJobs_class_1 3141787
scalar FogSequentialForward.fog[46].dispatcher localJobs_class_1 823008
scalar FogSequentialForward.fog[46].dispatcher droppedJobsSLA_class_1 79234
scalar FogSequentialForward.fog[46].server[0] rho 0.9999583363533
scalar FogSequentialForward.fog[46].server[0] congestionRatio 0
scalar FogSequentialForward.fog[46].server[0] totalJobs 823008
scalar FogSequentialForward.fog[46].server[0] droppedJobsQueue 4
scalar FogSequentialForward.fog[46].server[0] droppedJobsTimout 0
scalar FogSequentialForward.fog[46].server[0] droppedJobsSLA 243180
scalar FogSequentialForward.fog[46].server[0] droppedJobsTotal 243184
scalar FogSequentialForward.fog[47].dispatcher localJobs 822826
scalar FogSequentialForward.fog[47].dispatcher internalJobs 901844
scalar FogSequentialForward.fog[47].dispatcher externalJobs 3139995
scalar FogSequentialForward.fog[47].dispatcher remoteJobs 3140355
scalar FogSequentialForward.fog[47].dispatcher probeQueries 0
scalar FogSequentialForward.fog[47].dispatcher probeAnswers 0
scalar FogSequentialForward.fog[47].dispatcher droppedJobsSLA 78658
scalar FogSequentialForward.fog[47].dispatcher jobs_class_1 4041839
scalar FogSequentialForward.fog[47].dispatcher remoteJobs_class_1 3140355
scalar FogSequentialForward.fog[47].dispatcher localJobs_class_1 822826
scalar FogSequentialForward.fog[47].dispatcher droppedJobsSLA_class_1 78658
scalar FogSequentialForward.fog[47].server[0] rho 0.99996495246887
scalar FogSequentialForward.fog[47].server[0] congestionRatio 0
scalar FogSequentialForward.fog[47].server[0] totalJobs 822826
scalar FogSequentialForward.fog[47].server[0] droppedJobsQueue 1
scalar FogSequentialForward.fog[47].server[0] droppedJobsTimout 0
scalar FogSequentialForward.fog[47].server[0] droppedJobsSLA 242881
scalar FogSequentialForward.fog[47].server[0] droppedJobsTotal 242882
scalar FogSequentialForward.fog[48].dispatcher localJobs 822818
scalar FogSequentialForward.fog[48].dispatcher internalJobs 899920
scalar FogSequentialForward.fog[48].dispatcher externalJobs 3142370
scalar FogSequentialForward.fog[48].dispatcher remoteJobs 3140695
scalar FogSequentialForward.fog[48].dispatcher probeQueries 0
scalar FogSequentialForward.fog[48].dispatcher probeAnswers 0
scalar FogSequentialForward.fog[48].dispatcher droppedJobsSLA 78777
scalar FogSequentialForward.fog[48].dispatcher jobs_class_1 4042290
scalar FogSequentialForward.fog[48].dispatcher remoteJobs_class_1 3140695
scalar FogSequentialForward.fog[48].dispatcher localJobs_class_1 822818
scalar FogSequentialForward.fog[48].dispatcher droppedJobsSLA_class_1 78777
scalar FogSequentialForward.fog[48].server[0] rho 0.9999675154686
scalar FogSequentialForward.fog[48].server[0] congestionRatio 0
scalar FogSequentialForward.fog[48].server[0] totalJobs 822818
scalar FogSequentialForward.fog[48].server[0] droppedJobsQueue 1
scalar FogSequentialForward.fog[48].server[0] droppedJobsTimout 0
scalar FogSequentialForward.fog[48].server[0] droppedJobsSLA 242760
scalar FogSequentialForward.fog[48].server[0] droppedJobsTotal 242761
scalar FogSequentialForward.fog[49].dispatcher localJobs 822762
scalar FogSequentialForward.fog[49].dispatcher internalJobs 901823
scalar FogSequentialForward.fog[49].dispatcher externalJobs 3142008
scalar FogSequentialForward.fog[49].dispatcher remoteJobs 3141782
scalar FogSequentialForward.fog[49].dispatcher probeQueries 0
scalar FogSequentialForward.fog[49].dispatcher probeAnswers 0
scalar FogSequentialForward.fog[49].dispatcher droppedJobsSLA 79287
scalar FogSequentialForward.fog[49].dispatcher jobs_class_1 4043831
scalar FogSequentialForward.fog[49].dispatcher remoteJobs_class_1 3141782
scalar FogSequentialForward.fog[49].dispatcher localJobs_class_1 822762
scalar FogSequentialForward.fog[49].dispatcher droppedJobsSLA_class_1 79287
scalar FogSequentialForward.fog[49].server[0] rho 0.99995625019073
scalar FogSequentialForward.fog[49].server[0] congestionRatio 0
scalar FogSequentialForward.fog[49].server[0] totalJobs 822762
scalar FogSequentialForward.fog[49].server[0] droppedJobsQueue 6
scalar FogSequentialForward.fog[49].server[0] droppedJobsTimout 0
scalar FogSequentialForward.fog[49].server[0] droppedJobsSLA 242599
scalar FogSequentialForward.fog[49].server[0] droppedJobsTotal 242605
scalar FogSequentialForward.fog[50].dispatcher localJobs 822887
scalar FogSequentialForward.fog[50].dispatcher internalJobs 902156
scalar FogSequentialForward.fog[50].dispatcher externalJobs 3138663
scalar FogSequentialForward.fog[50].dispatcher remoteJobs 3139241
scalar FogSequentialForward.fog[50].dispatcher probeQueries 0
scalar FogSequentialForward.fog[50].dispatcher probeAnswers 0
scalar FogSequentialForward.fog[50].dispatcher droppedJobsSLA 78691
scalar FogSequentialForward.fog[50].dispatcher jobs_class_1 4040819
scalar FogSequentialForward.fog[50].dispatcher remoteJobs_class_1 3139241
scalar FogSequentialForward.fog[50].dispatcher localJobs_class_1 822887
scalar FogSequentialForward.fog[50].dispatcher droppedJobsSLA_class_1 78691
scalar FogSequentialForward.fog[50].server[0] rho 0.99996477365494
scalar FogSequentialForward.fog[50].server[0] congestionRatio 0
scalar FogSequentialForward.fog[50].server[0] totalJobs 822887
scalar FogSequentialForward.fog[50].server[0] droppedJobsQueue 4
scalar FogSequentialForward.fog[50].server[0] droppedJobsTimout 0
scalar FogSequentialForward.fog[50].server[0] droppedJobsSLA 242718
scalar FogSequentialForward.fog[50].server[0] droppedJobsTotal 242722
scalar FogSequentialForward.fog[51].dispatcher localJobs 823104
scalar FogSequentialForward.fog[51].dispatcher internalJobs 901994
scalar FogSequentialForward.fog[51].dispatcher externalJobs 3139481
scalar FogSequentialForward.fog[51].dispatcher remoteJobs 3139673
scalar FogSequentialForward.fog[51].dispatcher probeQueries 0
scalar FogSequentialForward.fog[51].dispatcher probeAnswers 0
scalar FogSequentialForward.fog[51].dispatcher droppedJobsSLA 78698
scalar FogSequentialForward.fog[51].dispatcher jobs_class_1 4041475
scalar FogSequentialForward.fog[51].dispatcher remoteJobs_class_1 3139673
scalar FogSequentialForward.fog[51].dispatcher localJobs_class_1 823104
scalar FogSequentialForward.fog[51].dispatcher droppedJobsSLA_class_1 78698
scalar FogSequentialForward.fog[51].server[0] rho 0.99996513128281
scalar FogSequentialForward.fog[51].server[0] congestionRatio 0
scalar FogSequentialForward.fog[51].server[0] totalJobs 823104
scalar FogSequentialForward.fog[51].server[0] droppedJobsQueue 3
scalar FogSequentialForward.fog[51].server[0] droppedJobsTimout 0
scalar FogSequentialForward.fog[51].server[0] droppedJobsSLA 242667
scalar FogSequentialForward.fog[51].server[0] droppedJobsTotal 242670
scalar FogSequentialForward.fog[52].dispatcher localJobs 823070
scalar FogSequentialForward.fog[52].dispatcher internalJobs 902131
scalar FogSequentialForward.fog[52].dispatcher externalJobs 3141331
scalar FogSequentialForward.fog[52].dispatcher remoteJobs 3141412
scalar FogSequentialForward.fog[52].dispatcher probeQueries 0
scalar FogSequentialForward.fog[52].dispatcher probeAnswers 0
scalar FogSequentialForward.fog[52].dispatcher droppedJobsSLA 78980
scalar FogSequentialForward.fog[52].dispatcher jobs_class_1 4043462
scalar FogSequentialForward.fog[52].dispatcher remoteJobs_class_1 3141412
scalar FogSequentialForward.fog[52].dispatcher localJobs_class_1 823070
scalar FogSequentialForward.fog[52].dispatcher droppedJobsSLA_class_1 78980
scalar FogSequentialForward.fog[52].server[0] rho 0.99996566772461
scalar FogSequentialForward.fog[52].server[0] congestionRatio 0
scalar FogSequentialForward.fog[52].server[0] totalJobs 823070
scalar FogSequentialForward.fog[52].server[0] droppedJobsQueue 2
scalar FogSequentialForward.fog[52].server[0] droppedJobsTimout 0
scalar FogSequentialForward.fog[52].server[0] droppedJobsSLA 242945
scalar FogSequentialForward.fog[52].server[0] droppedJobsTotal 242947
scalar FogSequentialForward.fog[53].dispatcher localJobs 822555
scalar FogSequentialForward.fog[53].dispatcher internalJobs 900150
scalar FogSequentialForward.fog[53].dispatcher externalJobs 3137058
scalar FogSequentialForward.fog[53].dispatcher remoteJobs 3136213
scalar FogSequentialForward.fog[53].dispatcher probeQueries 0
scalar FogSequentialForward.fog[53].dispatcher probeAnswers 0
scalar FogSequentialForward.fog[53].dispatcher droppedJobsSLA 78440
scalar FogSequentialForward.fog[53].dispatcher jobs_class_1 4037208
scalar FogSequentialForward.fog[53].dispatcher remoteJobs_class_1 3136213
scalar FogSequentialForward.fog[53].dispatcher localJobs_class_1 822555
scalar FogSequentialForward.fog[53].dispatcher droppedJobsSLA_class_1 78440
scalar FogSequentialForward.fog[53].server[0] rho 0.99996358156204
scalar FogSequentialForward.fog[53].server[0] congestionRatio 0
scalar FogSequentialForward.fog[53].server[0] totalJobs 822555
scalar FogSequentialForward.fog[53].server[0] droppedJobsQueue 1
scalar FogSequentialForward.fog[53].server[0] droppedJobsTimout 0
scalar FogSequentialForward.fog[53].server[0] droppedJobsSLA 242141
scalar FogSequentialForward.fog[53].server[0] droppedJobsTotal 242142
scalar FogSequentialForward.fog[54].dispatcher localJobs 822621
scalar FogSequentialForward.fog[54].dispatcher internalJobs 901869
scalar FogSequentialForward.fog[54].dispatcher externalJobs 3137156
scalar FogSequentialForward.fog[54].dispatcher remoteJobs 3137493
scalar FogSequentialForward.fog[54].dispatcher probeQueries 0
scalar FogSequentialForward.fog[54].dispatcher probeAnswers 0
scalar FogSequentialForward.fog[54].dispatcher droppedJobsSLA 78911
scalar FogSequentialForward.fog[54].dispatcher jobs_class_1 4039025
scalar FogSequentialForward.fog[54].dispatcher remoteJobs_class_1 3137493
scalar FogSequentialForward.fog[54].dispatcher localJobs_class_1 822621
scalar FogSequentialForward.fog[54].dispatcher droppedJobsSLA_class_1 78911
scalar FogSequentialForward.fog[54].server[0] rho 0.99996656179428
scalar FogSequentialForward.fog[54].server[0] congestionRatio 0
scalar FogSequentialForward.fog[54].server[0] totalJobs 822621
scalar FogSequentialForward.fog[54].server[0] droppedJobsQueue 5
scalar FogSequentialForward.fog[54].server[0] droppedJobsTimout 0
scalar FogSequentialForward.fog[54].server[0] droppedJobsSLA 242242
scalar FogSequentialForward.fog[54].server[0] droppedJobsTotal 242247
scalar FogSequentialForward.fog[55].dispatcher localJobs 823022
scalar FogSequentialForward.fog[55].dispatcher internalJobs 903367
scalar FogSequentialForward.fog[55].dispatcher externalJobs 3139366
scalar FogSequentialForward.fog[55].dispatcher remoteJobs 3140915
scalar FogSequentialForward.fog[55].dispatcher probeQueries 0
scalar FogSequentialForward.fog[55].dispatcher probeAnswers 0
scalar FogSequentialForward.fog[55].dispatcher droppedJobsSLA 78796
scalar FogSequentialForward.fog[55].dispatcher jobs_class_1 4042733
scalar FogSequentialForward.fog[55].dispatcher remoteJobs_class_1 3140915
scalar FogSequentialForward.fog[55].dispatcher localJobs_class_1 823022
scalar FogSequentialForward.fog[55].dispatcher droppedJobsSLA_class_1 78796
scalar FogSequentialForward.fog[55].server[0] rho 0.99996221065521
scalar FogSequentialForward.fog[55].server[0] congestionRatio 0
scalar FogSequentialForward.fog[55].server[0] totalJobs 823022
scalar FogSequentialForward.fog[55].server[0] droppedJobsQueue 1
scalar FogSequentialForward.fog[55].server[0] droppedJobsTimout 0
scalar FogSequentialForward.fog[55].server[0] droppedJobsSLA 242718
scalar FogSequentialForward.fog[55].server[0] droppedJobsTotal 242719
scalar FogSequentialForward.fog[56].dispatcher localJobs 822929
scalar FogSequentialForward.fog[56].dispatcher internalJobs 902858
scalar FogSequentialForward.fog[56].dispatcher externalJobs 3140341
scalar FogSequentialForward.fog[56].dispatcher remoteJobs 3141449
scalar FogSequentialForward.fog[56].dispatcher probeQueries 0
scalar FogSequentialForward.fog[56].dispatcher probeAnswers 0
scalar FogSequentialForward.fog[56].dispatcher droppedJobsSLA 78821
scalar FogSequentialForward.fog[56].dispatcher jobs_class_1 4043199
scalar FogSequentialForward.fog[56].dispatcher remoteJobs_class_1 3141449
scalar FogSequentialForward.fog[56].dispatcher localJobs_class_1 822929
scalar FogSequentialForward.fog[56].dispatcher droppedJobsSLA_class_1 78821
scalar FogSequentialForward.fog[56].server[0] rho 0.99996113777161
scalar FogSequentialForward.fog[56].server[0] congestionRatio 0
scalar FogSequentialForward.fog[56].server[0] totalJobs 822929
scalar FogSequentialForward.fog[56].server[0] droppedJobsQueue 5
scalar FogSequentialForward.fog[56].server[0] droppedJobsTimout 0
scalar FogSequentialForward.fog[56].server[0] droppedJobsSLA 243003
scalar FogSequentialForward.fog[56].server[0] droppedJobsTotal 243008
scalar FogSequentialForward.fog[57].dispatcher localJobs 822844
scalar FogSequentialForward.fog[57].dispatcher internalJobs 902770
scalar FogSequentialForward.fog[57].dispatcher externalJobs 3139686
scalar FogSequentialForward.fog[57].dispatcher remoteJobs 3140987
scalar FogSequentialForward.fog[57].dispatcher probeQueries 0
scalar FogSequentialForward.fog[57].dispatcher probeAnswers 0
scalar FogSequentialForward.fog[57].dispatcher droppedJobsSLA 78625
scalar FogSequentialForward.fog[57].dispatcher jobs_class_1 4042456
scalar FogSequentialForward.fog[57].dispatcher remoteJobs_class_1 3140987
scalar FogSequentialForward.fog[57].dispatcher localJobs_class_1 822844
scalar FogSequentialForward.fog[57].dispatcher droppedJobsSLA_class_1 78625
scalar FogSequentialForward.fog[57].server[0] rho 0.99996912479401
scalar FogSequentialForward.fog[57].server[0] congestionRatio 0
scalar FogSequentialForward.fog[57].server[0] totalJobs 822844
scalar FogSequentialForward.fog[57].server[0] droppedJobsQueue 4
scalar FogSequentialForward.fog[57].server[0] droppedJobsTimout 0
scalar FogSequentialForward.fog[57].server[0] droppedJobsSLA 243240
scalar FogSequentialForward.fog[57].server[0] droppedJobsTotal 243244
scalar FogSequentialForward.fog[58].dispatcher localJobs 821831
scalar FogSequentialForward.fog[58].dispatcher internalJobs 902552
scalar FogSequentialForward.fog[58].dispatcher externalJobs 3139334
scalar FogSequentialForward.fog[58].dispatcher remoteJobs 3141151
scalar FogSequentialForward.fog[58].dispatcher probeQueries 0
scalar FogSequentialForward.fog[58].dispatcher probeAnswers 0
scalar FogSequentialForward.fog[58].dispatcher droppedJobsSLA 78904
scalar FogSequentialForward.fog[58].dispatcher jobs_class_1 4041886
scalar FogSequentialForward.fog[58].dispatcher remoteJobs_class_1 3141151
scalar FogSequentialForward.fog[58].dispatcher localJobs_class_1 821831
scalar FogSequentialForward.fog[58].dispatcher droppedJobsSLA_class_1 78904
scalar FogSequentialForward.fog[58].server[0] rho 0.99996292591095
scalar FogSequentialForward.fog[58].server[0] congestionRatio 0
scalar FogSequentialForward.fog[58].server[0] totalJobs 821831
scalar FogSequentialForward.fog[58].server[0] droppedJobsQueue 2
scalar FogSequentialForward.fog[58].server[0] droppedJobsTimout 0
scalar FogSequentialForward.fog[58].server[0] droppedJobsSLA 241389
scalar FogSequentialForward.fog[58].server[0] droppedJobsTotal 241391
scalar FogSequentialForward.fog[59].dispatcher localJobs 822227
scalar FogSequentialForward.fog[59].dispatcher internalJobs 899697
scalar FogSequentialForward.fog[59].dispatcher externalJobs 3141161
scalar FogSequentialForward.fog[59].dispatcher remoteJobs 3139921
scalar FogSequentialForward.fog[59].dispatcher probeQueries 0
scalar FogSequentialForward.fog[59].dispatcher probeAnswers 0
scalar FogSequentialForward.fog[59].dispatcher droppedJobsSLA 78710
scalar FogSequentialForward.fog[59].dispatcher jobs_class_1 4040858
scalar FogSequentialForward.fog[59].dispatcher remoteJobs_class_1 3139921
scalar FogSequentialForward.fog[59].dispatcher localJobs_class_1 822227
scalar FogSequentialForward.fog[59].dispatcher droppedJobsSLA_class_1 78710
scalar FogSequentialForward.fog[59].server[0] rho 0.99997121095657
scalar FogSequentialForward.fog[59].server[0] congestionRatio 0
scalar FogSequentialForward.fog[59].server[0] totalJobs 822227
scalar FogSequentialForward.fog[59].server[0] droppedJobsQueue 0
scalar FogSequentialForward.fog[59].server[0] droppedJobsTimout 0
scalar FogSequentialForward.fog[59].server[0] droppedJobsSLA 242029
scalar FogSequentialForward.fog[59].server[0] droppedJobsTotal 242029
scalar FogSequentialForward.fog[60].dispatcher localJobs 823491
scalar FogSequentialForward.fog[60].dispatcher internalJobs 902992
scalar FogSequentialForward.fog[60].dispatcher externalJobs 3142881
scalar FogSequentialForward.fog[60].dispatcher remoteJobs 3143764
scalar FogSequentialForward.fog[60].dispatcher probeQueries 0
scalar FogSequentialForward.fog[60].dispatcher probeAnswers 0
scalar FogSequentialForward.fog[60].dispatcher droppedJobsSLA 78618
scalar FogSequentialForward.fog[60].dispatcher jobs_class_1 4045873
scalar FogSequentialForward.fog[60].dispatcher remoteJobs_class_1 3143764
scalar FogSequentialForward.fog[60].dispatcher localJobs_class_1 823491
scalar FogSequentialForward.fog[60].dispatcher droppedJobsSLA_class_1 78618
scalar FogSequentialForward.fog[60].server[0] rho 0.99996650218964
scalar FogSequentialForward.fog[60].server[0] congestionRatio 0
scalar FogSequentialForward.fog[60].server[0] totalJobs 823491
scalar FogSequentialForward.fog[60].server[0] droppedJobsQueue 4
scalar FogSequentialForward.fog[60].server[0] droppedJobsTimout 0
scalar FogSequentialForward.fog[60].server[0] droppedJobsSLA 243311
scalar FogSequentialForward.fog[60].server[0] droppedJobsTotal 243315
scalar FogSequentialForward.fog[61].dispatcher localJobs 822544
scalar FogSequentialForward.fog[61].dispatcher internalJobs 900924
scalar FogSequentialForward.fog[61].dispatcher externalJobs 3140726
scalar FogSequentialForward.fog[61].dispatcher remoteJobs 3140198
scalar FogSequentialForward.fog[61].dispatcher probeQueries 0
scalar FogSequentialForward.fog[61].dispatcher probeAnswers 0
scalar FogSequentialForward.fog[61].dispatcher droppedJobsSLA 78908
scalar FogSequentialForward.fog[61].dispatcher jobs_class_1 4041650
scalar FogSequentialForward.fog[61].dispatcher remoteJobs_class_1 3140198
scalar FogSequentialForward.fog[61].dispatcher localJobs_class_1 822544
scalar FogSequentialForward.fog[61].dispatcher droppedJobsSLA_class_1 78908
scalar FogSequentialForward.fog[61].server[0] rho 0.99996787309647
scalar FogSequentialForward.fog[61].server[0] congestionRatio 0
scalar FogSequentialForward.fog[61].server[0] totalJobs 822544
scalar FogSequentialForward.fog[61].server[0] droppedJobsQueue 2
scalar FogSequentialForward.fog[61].server[0] droppedJobsTimout 0
scalar FogSequentialForward.fog[61].server[0] droppedJobsSLA 242640
scalar FogSequentialForward.fog[61].server[0] droppedJobsTotal 242642
scalar FogSequentialForward.fog[62].dispatcher localJobs 823185
scalar FogSequentialForward.fog[62].dispatcher internalJobs 901431
scalar FogSequentialForward.fog[62].dispatcher externalJobs 3141667
scalar FogSequentialForward.fog[62].dispatcher remoteJobs 3141095
scalar FogSequentialForward.fog[62].dispatcher probeQueries 0
scalar FogSequentialForward.fog[62].dispatcher probeAnswers 0
scalar FogSequentialForward.fog[62].dispatcher droppedJobsSLA 78818
scalar FogSequentialForward.fog[62].dispatcher jobs_class_1 4043098
scalar FogSequentialForward.fog[62].dispatcher remoteJobs_class_1 3141095
scalar FogSequentialForward.fog[62].dispatcher localJobs_class_1 823185
scalar FogSequentialForward.fog[62].dispatcher droppedJobsSLA_class_1 78818
scalar FogSequentialForward.fog[62].server[0] rho 0.99996227025986
scalar FogSequentialForward.fog[62].server[0] congestionRatio 0
scalar FogSequentialForward.fog[62].server[0] totalJobs 823185
scalar FogSequentialForward.fog[62].server[0] droppedJobsQueue 6
scalar FogSequentialForward.fog[62].server[0] droppedJobsTimout 0
scalar FogSequentialForward.fog[62].server[0] droppedJobsSLA 243529
scalar FogSequentialForward.fog[62].server[0] droppedJobsTotal 243535
scalar FogSequentialForward.fog[63].dispatcher localJobs 823120
scalar FogSequentialForward.fog[63].dispatcher internalJobs 902142
scalar FogSequentialForward.fog[63].dispatcher externalJobs 3139714
scalar FogSequentialForward.fog[63].dispatcher remoteJobs 3139679
scalar FogSequentialForward.fog[63].dispatcher probeQueries 0
scalar FogSequentialForward.fog[63].dispatcher probeAnswers 0
scalar FogSequentialForward.fog[63].dispatcher droppedJobsSLA 79057
scalar FogSequentialForward.fog[63].dispatcher jobs_class_1 4041856
scalar FogSequentialForward.fog[63].dispatcher remoteJobs_class_1 3139679
scalar FogSequentialForward.fog[63].dispatcher localJobs_class_1 823120
scalar FogSequentialForward.fog[63].dispatcher droppedJobsSLA_class_1 79057
scalar FogSequentialForward.fog[63].server[0] rho 0.99996674060822
scalar FogSequentialForward.fog[63].server[0] congestionRatio 0
scalar FogSequentialForward.fog[63].server[0] totalJobs 823120
scalar FogSequentialForward.fog[63].server[0] droppedJobsQueue 2
scalar FogSequentialForward.fog[63].server[0] droppedJobsTimout 0
scalar FogSequentialForward.fog[63].server[0] droppedJobsSLA 243110
scalar FogSequentialForward.fog[63].server[0] droppedJobsTotal 243112
scalar FogSequentialForward.fog[64].dispatcher localJobs 822373
scalar FogSequentialForward.fog[64].dispatcher internalJobs 901553
scalar FogSequentialForward.fog[64].dispatcher externalJobs 3138430
scalar FogSequentialForward.fog[64].dispatcher remoteJobs 3139069
scalar FogSequentialForward.fog[64].dispatcher probeQueries 0
scalar FogSequentialForward.fog[64].dispatcher probeAnswers 0
scalar FogSequentialForward.fog[64].dispatcher droppedJobsSLA 78541
scalar FogSequentialForward.fog[64].dispatcher jobs_class_1 4039983
scalar FogSequentialForward.fog[64].dispatcher remoteJobs_class_1 3139069
scalar FogSequentialForward.fog[64].dispatcher localJobs_class_1 822373
scalar FogSequentialForward.fog[64].dispatcher droppedJobsSLA_class_1 78541
scalar FogSequentialForward.fog[64].server[0] rho 0.99996829032898
scalar FogSequentialForward.fog[64].server[0] congestionRatio 0
scalar FogSequentialForward.fog[64].server[0] totalJobs 822373
scalar FogSequentialForward.fog[64].server[0] droppedJobsQueue 3
scalar FogSequentialForward.fog[64].server[0] droppedJobsTimout 0
scalar FogSequentialForward.fog[64].server[0] droppedJobsSLA 242000
scalar FogSequentialForward.fog[64].server[0] droppedJobsTotal 242003
scalar FogSequentialForward.fog[65].dispatcher localJobs 822957
scalar FogSequentialForward.fog[65].dispatcher internalJobs 900777
scalar FogSequentialForward.fog[65].dispatcher externalJobs 3139616
scalar FogSequentialForward.fog[65].dispatcher remoteJobs 3138363
[...]
scalar FogSequentialForward.fog[84].dispatcher jobs_class_1 4040949
scalar FogSequentialForward.fog[84].dispatcher remoteJobs_class_1 3138733
scalar FogSequentialForward.fog[84].dispatcher localJobs_class_1 822992
scalar FogSequentialForward.fog[84].dispatcher droppedJobsSLA_class_1 79224
scalar FogSequentialForward.fog[84].server[0] rho 0.9999675154686
scalar FogSequentialForward.fog[84].server[0] congestionRatio 0
scalar FogSequentialForward.fog[84].server[0] totalJobs 822992
scalar FogSequentialForward.fog[84].server[0] droppedJobsQueue 3
scalar FogSequentialForward.fog[84].server[0] droppedJobsTimout 0
scalar FogSequentialForward.fog[84].server[0] droppedJobsSLA 242804
scalar FogSequentialForward.fog[84].server[0] droppedJobsTotal 242807
scalar FogSequentialForward.fog[85].dispatcher localJobs 822560
scalar FogSequentialForward.fog[85].dispatcher internalJobs 901369
scalar FogSequentialForward.fog[85].dispatcher externalJobs 3138512
scalar FogSequentialForward.fog[85].dispatcher remoteJobs 3138646
scalar FogSequentialForward.fog[85].dispatcher probeQueries 0
scalar FogSequentialForward.fog[85].dispatcher probeAnswers 0
scalar FogSequentialForward.fog[85].dispatcher droppedJobsSLA 78675
scalar FogSequentialForward.fog[85].dispatcher jobs_class_1 4039881
scalar FogSequentialForward.fog[85].dispatcher remoteJobs_class_1 3138646
scalar FogSequentialForward.fog[85].dispatcher localJobs_class_1 822560
scalar FogSequentialForward.fog[85].dispatcher droppedJobsSLA_class_1 78675
scalar FogSequentialForward.fog[85].server[0] rho 0.99995946884155
scalar FogSequentialForward.fog[85].server[0] congestionRatio 0
scalar FogSequentialForward.fog[85].server[0] totalJobs 822560
scalar FogSequentialForward.fog[85].server[0] droppedJobsQueue 2
scalar FogSequentialForward.fog[85].server[0] droppedJobsTimout 0
scalar FogSequentialForward.fog[85].server[0] droppedJobsSLA 242365
scalar FogSequentialForward.fog[85].server[0] droppedJobsTotal 242367
scalar FogSequentialForward.fog[86].dispatcher localJobs 822677
scalar FogSequentialForward.fog[86].dispatcher internalJobs 901889
scalar FogSequentialForward.fog[86].dispatcher externalJobs 3142027
scalar FogSequentialForward.fog[86].dispatcher remoteJobs 3142303
scalar FogSequentialForward.fog[86].dispatcher probeQueries 0
scalar FogSequentialForward.fog[86].dispatcher probeAnswers 0
scalar FogSequentialForward.fog[86].dispatcher droppedJobsSLA 78936
scalar FogSequentialForward.fog[86].dispatcher jobs_class_1 4043916
scalar FogSequentialForward.fog[86].dispatcher remoteJobs_class_1 3142303
scalar FogSequentialForward.fog[86].dispatcher localJobs_class_1 822677
scalar FogSequentialForward.fog[86].dispatcher droppedJobsSLA_class_1 78936
scalar FogSequentialForward.fog[86].server[0] rho 0.99996215105057
scalar FogSequentialForward.fog[86].server[0] congestionRatio 0
scalar FogSequentialForward.fog[86].server[0] totalJobs 822677
scalar FogSequentialForward.fog[86].server[0] droppedJobsQueue 2
scalar FogSequentialForward.fog[86].server[0] droppedJobsTimout 0
scalar FogSequentialForward.fog[86].server[0] droppedJobsSLA 243185
scalar FogSequentialForward.fog[86].server[0] droppedJobsTotal 243187
scalar FogSequentialForward.fog[87].dispatcher localJobs 822469
scalar FogSequentialForward.fog[87].dispatcher internalJobs 902049
scalar FogSequentialForward.fog[87].dispatcher externalJobs 3139662
scalar FogSequentialForward.fog[87].dispatcher remoteJobs 3140372
scalar FogSequentialForward.fog[87].dispatcher probeQueries 0
scalar FogSequentialForward.fog[87].dispatcher probeAnswers 0
scalar FogSequentialForward.fog[87].dispatcher droppedJobsSLA 78870
scalar FogSequentialForward.fog[87].dispatcher jobs_class_1 4041711
scalar FogSequentialForward.fog[87].dispatcher remoteJobs_class_1 3140372
scalar FogSequentialForward.fog[87].dispatcher localJobs_class_1 822469
scalar FogSequentialForward.fog[87].dispatcher droppedJobsSLA_class_1 78870
scalar FogSequentialForward.fog[87].server[0] rho 0.99996000528336
scalar FogSequentialForward.fog[87].server[0] congestionRatio 0
scalar FogSequentialForward.fog[87].server[0] totalJobs 822469
scalar FogSequentialForward.fog[87].server[0] droppedJobsQueue 7
scalar FogSequentialForward.fog[87].server[0] droppedJobsTimout 0
scalar FogSequentialForward.fog[87].server[0] droppedJobsSLA 242042
scalar FogSequentialForward.fog[87].server[0] droppedJobsTotal 242049
scalar FogSequentialForward.fog[88].dispatcher localJobs 823460
scalar FogSequentialForward.fog[88].dispatcher internalJobs 901235
scalar FogSequentialForward.fog[88].dispatcher externalJobs 3140200
scalar FogSequentialForward.fog[88].dispatcher remoteJobs 3139312
scalar FogSequentialForward.fog[88].dispatcher probeQueries 0
scalar FogSequentialForward.fog[88].dispatcher probeAnswers 0
scalar FogSequentialForward.fog[88].dispatcher droppedJobsSLA 78663
scalar FogSequentialForward.fog[88].dispatcher jobs_class_1 4041435
scalar FogSequentialForward.fog[88].dispatcher remoteJobs_class_1 3139312
scalar FogSequentialForward.fog[88].dispatcher localJobs_class_1 823460
scalar FogSequentialForward.fog[88].dispatcher droppedJobsSLA_class_1 78663
scalar FogSequentialForward.fog[88].server[0] rho 0.99996620416641
scalar FogSequentialForward.fog[88].server[0] congestionRatio 0
scalar FogSequentialForward.fog[88].server[0] totalJobs 823460
scalar FogSequentialForward.fog[88].server[0] droppedJobsQueue 0
scalar FogSequentialForward.fog[88].server[0] droppedJobsTimout 0
scalar FogSequentialForward.fog[88].server[0] droppedJobsSLA 243870
scalar FogSequentialForward.fog[88].server[0] droppedJobsTotal 243870
scalar FogSequentialForward.fog[89].dispatcher localJobs 822421
scalar FogSequentialForward.fog[89].dispatcher internalJobs 901253
scalar FogSequentialForward.fog[89].dispatcher externalJobs 3139580
scalar FogSequentialForward.fog[89].dispatcher remoteJobs 3139599
scalar FogSequentialForward.fog[89].dispatcher probeQueries 0
scalar FogSequentialForward.fog[89].dispatcher probeAnswers 0
scalar FogSequentialForward.fog[89].dispatcher droppedJobsSLA 78813
scalar FogSequentialForward.fog[89].dispatcher jobs_class_1 4040833
scalar FogSequentialForward.fog[89].dispatcher remoteJobs_class_1 3139599
scalar FogSequentialForward.fog[89].dispatcher localJobs_class_1 822421
scalar FogSequentialForward.fog[89].dispatcher droppedJobsSLA_class_1 78813
scalar FogSequentialForward.fog[89].server[0] rho 0.99995964765549
scalar FogSequentialForward.fog[89].server[0] congestionRatio 0
scalar FogSequentialForward.fog[89].server[0] totalJobs 822421
scalar FogSequentialForward.fog[89].server[0] droppedJobsQueue 2
scalar FogSequentialForward.fog[89].server[0] droppedJobsTimout 0
scalar FogSequentialForward.fog[89].server[0] droppedJobsSLA 242642
scalar FogSequentialForward.fog[89].server[0] droppedJobsTotal 242644
scalar FogSequentialForward.fog[90].dispatcher localJobs 823387
scalar FogSequentialForward.fog[90].dispatcher internalJobs 900477
scalar FogSequentialForward.fog[90].dispatcher externalJobs 3141841
scalar FogSequentialForward.fog[90].dispatcher remoteJobs 3140253
scalar FogSequentialForward.fog[90].dispatcher probeQueries 0
scalar FogSequentialForward.fog[90].dispatcher probeAnswers 0
scalar FogSequentialForward.fog[90].dispatcher droppedJobsSLA 78678
scalar FogSequentialForward.fog[90].dispatcher jobs_class_1 4042318
scalar FogSequentialForward.fog[90].dispatcher remoteJobs_class_1 3140253
scalar FogSequentialForward.fog[90].dispatcher localJobs_class_1 823387
scalar FogSequentialForward.fog[90].dispatcher droppedJobsSLA_class_1 78678
scalar FogSequentialForward.fog[90].server[0] rho 0.99996119737625
scalar FogSequentialForward.fog[90].server[0] congestionRatio 0
scalar FogSequentialForward.fog[90].server[0] totalJobs 823387
scalar FogSequentialForward.fog[90].server[0] droppedJobsQueue 2
scalar FogSequentialForward.fog[90].server[0] droppedJobsTimout 0
scalar FogSequentialForward.fog[90].server[0] droppedJobsSLA 243476
scalar FogSequentialForward.fog[90].server[0] droppedJobsTotal 243478
scalar FogSequentialForward.fog[91].dispatcher localJobs 822577
scalar FogSequentialForward.fog[91].dispatcher internalJobs 901936
scalar FogSequentialForward.fog[91].dispatcher externalJobs 3140748
scalar FogSequentialForward.fog[91].dispatcher remoteJobs 3141117
scalar FogSequentialForward.fog[91].dispatcher probeQueries 0
scalar FogSequentialForward.fog[91].dispatcher probeAnswers 0
scalar FogSequentialForward.fog[91].dispatcher droppedJobsSLA 78990
scalar FogSequentialForward.fog[91].dispatcher jobs_class_1 4042684
scalar FogSequentialForward.fog[91].dispatcher remoteJobs_class_1 3141117
scalar FogSequentialForward.fog[91].dispatcher localJobs_class_1 822577
scalar FogSequentialForward.fog[91].dispatcher droppedJobsSLA_class_1 78990
scalar FogSequentialForward.fog[91].server[0] rho 0.99996620416641
scalar FogSequentialForward.fog[91].server[0] congestionRatio 0
scalar FogSequentialForward.fog[91].server[0] totalJobs 822577
scalar FogSequentialForward.fog[91].server[0] droppedJobsQueue 3
scalar FogSequentialForward.fog[91].server[0] droppedJobsTimout 0
scalar FogSequentialForward.fog[91].server[0] droppedJobsSLA 242226
scalar FogSequentialForward.fog[91].server[0] droppedJobsTotal 242229
scalar FogSequentialForward.fog[92].dispatcher localJobs 822557
scalar FogSequentialForward.fog[92].dispatcher internalJobs 900018
scalar FogSequentialForward.fog[92].dispatcher externalJobs 3141647
scalar FogSequentialForward.fog[92].dispatcher remoteJobs 3140401
scalar FogSequentialForward.fog[92].dispatcher probeQueries 0
scalar FogSequentialForward.fog[92].dispatcher probeAnswers 0
scalar FogSequentialForward.fog[92].dispatcher droppedJobsSLA 78707
scalar FogSequentialForward.fog[92].dispatcher jobs_class_1 4041665
scalar FogSequentialForward.fog[92].dispatcher remoteJobs_class_1 3140401
scalar FogSequentialForward.fog[92].dispatcher localJobs_class_1 822557
scalar FogSequentialForward.fog[92].dispatcher droppedJobsSLA_class_1 78707
scalar FogSequentialForward.fog[92].server[0] rho 0.99996834993362
scalar FogSequentialForward.fog[92].server[0] congestionRatio 0
scalar FogSequentialForward.fog[92].server[0] totalJobs 822557
scalar FogSequentialForward.fog[92].server[0] droppedJobsQueue 5
scalar FogSequentialForward.fog[92].server[0] droppedJobsTimout 0
scalar FogSequentialForward.fog[92].server[0] droppedJobsSLA 242516
scalar FogSequentialForward.fog[92].server[0] droppedJobsTotal 242521
scalar FogSequentialForward.fog[93].dispatcher localJobs 822850
scalar FogSequentialForward.fog[93].dispatcher internalJobs 902416
scalar FogSequentialForward.fog[93].dispatcher externalJobs 3141106
scalar FogSequentialForward.fog[93].dispatcher remoteJobs 3141880
scalar FogSequentialForward.fog[93].dispatcher probeQueries 0
scalar FogSequentialForward.fog[93].dispatcher probeAnswers 0
scalar FogSequentialForward.fog[93].dispatcher droppedJobsSLA 78792
scalar FogSequentialForward.fog[93].dispatcher jobs_class_1 4043522
scalar FogSequentialForward.fog[93].dispatcher remoteJobs_class_1 3141880
scalar FogSequentialForward.fog[93].dispatcher localJobs_class_1 822850
scalar FogSequentialForward.fog[93].dispatcher droppedJobsSLA_class_1 78792
scalar FogSequentialForward.fog[93].server[0] rho 0.99996876716614
scalar FogSequentialForward.fog[93].server[0] congestionRatio 0
scalar FogSequentialForward.fog[93].server[0] totalJobs 822850
scalar FogSequentialForward.fog[93].server[0] droppedJobsQueue 3
scalar FogSequentialForward.fog[93].server[0] droppedJobsTimout 0
scalar FogSequentialForward.fog[93].server[0] droppedJobsSLA 242806
scalar FogSequentialForward.fog[93].server[0] droppedJobsTotal 242809
scalar FogSequentialForward.fog[94].dispatcher localJobs 822790
scalar FogSequentialForward.fog[94].dispatcher internalJobs 902661
scalar FogSequentialForward.fog[94].dispatcher externalJobs 3141914
scalar FogSequentialForward.fog[94].dispatcher remoteJobs 3143255
scalar FogSequentialForward.fog[94].dispatcher probeQueries 0
scalar FogSequentialForward.fog[94].dispatcher probeAnswers 0
scalar FogSequentialForward.fog[94].dispatcher droppedJobsSLA 78530
scalar FogSequentialForward.fog[94].dispatcher jobs_class_1 4044575
scalar FogSequentialForward.fog[94].dispatcher remoteJobs_class_1 3143255
scalar FogSequentialForward.fog[94].dispatcher localJobs_class_1 822790
scalar FogSequentialForward.fog[94].dispatcher droppedJobsSLA_class_1 78530
scalar FogSequentialForward.fog[94].server[0] rho 0.99996531009674
scalar FogSequentialForward.fog[94].server[0] congestionRatio 0
scalar FogSequentialForward.fog[94].server[0] totalJobs 822790
scalar FogSequentialForward.fog[94].server[0] droppedJobsQueue 2
scalar FogSequentialForward.fog[94].server[0] droppedJobsTimout 0
scalar FogSequentialForward.fog[94].server[0] droppedJobsSLA 242657
scalar FogSequentialForward.fog[94].server[0] droppedJobsTotal 242659
scalar FogSequentialForward.fog[95].dispatcher localJobs 822493
scalar FogSequentialForward.fog[95].dispatcher internalJobs 902818
scalar FogSequentialForward.fog[95].dispatcher externalJobs 3138560
scalar FogSequentialForward.fog[95].dispatcher remoteJobs 3139767
scalar FogSequentialForward.fog[95].dispatcher probeQueries 0
scalar FogSequentialForward.fog[95].dispatcher probeAnswers 0
scalar FogSequentialForward.fog[95].dispatcher droppedJobsSLA 79118
scalar FogSequentialForward.fog[95].dispatcher jobs_class_1 4041378
scalar FogSequentialForward.fog[95].dispatcher remoteJobs_class_1 3139767
scalar FogSequentialForward.fog[95].dispatcher localJobs_class_1 822493
scalar FogSequentialForward.fog[95].dispatcher droppedJobsSLA_class_1 79118
scalar FogSequentialForward.fog[95].server[0] rho 0.9999697804451
scalar FogSequentialForward.fog[95].server[0] congestionRatio 0
scalar FogSequentialForward.fog[95].server[0] totalJobs 822493
scalar FogSequentialForward.fog[95].server[0] droppedJobsQueue 2
scalar FogSequentialForward.fog[95].server[0] droppedJobsTimout 0
scalar FogSequentialForward.fog[95].server[0] droppedJobsSLA 242156
scalar FogSequentialForward.fog[95].server[0] droppedJobsTotal 242158
scalar FogSequentialForward.fog[96].dispatcher localJobs 822747
scalar FogSequentialForward.fog[96].dispatcher internalJobs 901990
scalar FogSequentialForward.fog[96].dispatcher externalJobs 3143361
scalar FogSequentialForward.fog[96].dispatcher remoteJobs 3143110
scalar FogSequentialForward.fog[96].dispatcher probeQueries 0
scalar FogSequentialForward.fog[96].dispatcher probeAnswers 0
scalar FogSequentialForward.fog[96].dispatcher droppedJobsSLA 79494
scalar FogSequentialForward.fog[96].dispatcher jobs_class_1 4045351
scalar FogSequentialForward.fog[96].dispatcher remoteJobs_class_1 3143110
scalar FogSequentialForward.fog[96].dispatcher localJobs_class_1 822747
scalar FogSequentialForward.fog[96].dispatcher droppedJobsSLA_class_1 79494
scalar FogSequentialForward.fog[96].server[0] rho 0.99996966123581
scalar FogSequentialForward.fog[96].server[0] congestionRatio 0
scalar FogSequentialForward.fog[96].server[0] totalJobs 822747
scalar FogSequentialForward.fog[96].server[0] droppedJobsQueue 3
scalar FogSequentialForward.fog[96].server[0] droppedJobsTimout 0
scalar FogSequentialForward.fog[96].server[0] droppedJobsSLA 242455
scalar FogSequentialForward.fog[96].server[0] droppedJobsTotal 242458
scalar FogSequentialForward.fog[97].dispatcher localJobs 823050
scalar FogSequentialForward.fog[97].dispatcher internalJobs 902615
scalar FogSequentialForward.fog[97].dispatcher externalJobs 3140832
scalar FogSequentialForward.fog[97].dispatcher remoteJobs 3141645
scalar FogSequentialForward.fog[97].dispatcher probeQueries 0
scalar FogSequentialForward.fog[97].dispatcher probeAnswers 0
scalar FogSequentialForward.fog[97].dispatcher droppedJobsSLA 78752
scalar FogSequentialForward.fog[97].dispatcher jobs_class_1 4043447
scalar FogSequentialForward.fog[97].dispatcher remoteJobs_class_1 3141645
scalar FogSequentialForward.fog[97].dispatcher localJobs_class_1 823050
scalar FogSequentialForward.fog[97].dispatcher droppedJobsSLA_class_1 78752
scalar FogSequentialForward.fog[97].server[0] rho 0.99996590614319
scalar FogSequentialForward.fog[97].server[0] congestionRatio 0
scalar FogSequentialForward.fog[97].server[0] totalJobs 823050
scalar FogSequentialForward.fog[97].server[0] droppedJobsQueue 1
scalar FogSequentialForward.fog[97].server[0] droppedJobsTimout 0
scalar FogSequentialForward.fog[97].server[0] droppedJobsSLA 242821
scalar FogSequentialForward.fog[97].server[0] droppedJobsTotal 242822
scalar FogSequentialForward.fog[98].dispatcher localJobs 822827
scalar FogSequentialForward.fog[98].dispatcher internalJobs 900259
scalar FogSequentialForward.fog[98].dispatcher externalJobs 3139614
scalar FogSequentialForward.fog[98].dispatcher remoteJobs 3138354
scalar FogSequentialForward.fog[98].dispatcher probeQueries 0
scalar FogSequentialForward.fog[98].dispatcher probeAnswers 0
scalar FogSequentialForward.fog[98].dispatcher droppedJobsSLA 78692
scalar FogSequentialForward.fog[98].dispatcher jobs_class_1 4039873
scalar FogSequentialForward.fog[98].dispatcher remoteJobs_class_1 3138354
scalar FogSequentialForward.fog[98].dispatcher localJobs_class_1 822827
scalar FogSequentialForward.fog[98].dispatcher droppedJobsSLA_class_1 78692
scalar FogSequentialForward.fog[98].server[0] rho 0.99996399879456
scalar FogSequentialForward.fog[98].server[0] congestionRatio 0
scalar FogSequentialForward.fog[98].server[0] totalJobs 822827
scalar FogSequentialForward.fog[98].server[0] droppedJobsQueue 4
scalar FogSequentialForward.fog[98].server[0] droppedJobsTimout 0
scalar FogSequentialForward.fog[98].server[0] droppedJobsSLA 242211
scalar FogSequentialForward.fog[98].server[0] droppedJobsTotal 242215
scalar FogSequentialForward.fog[99].dispatcher localJobs 822192
scalar FogSequentialForward.fog[99].dispatcher internalJobs 902613
scalar FogSequentialForward.fog[99].dispatcher externalJobs 3137533
scalar FogSequentialForward.fog[99].dispatcher remoteJobs 3139576
scalar FogSequentialForward.fog[99].dispatcher probeQueries 0
scalar FogSequentialForward.fog[99].dispatcher probeAnswers 0
scalar FogSequentialForward.fog[99].dispatcher droppedJobsSLA 78378
scalar FogSequentialForward.fog[99].dispatcher jobs_class_1 4040146
scalar FogSequentialForward.fog[99].dispatcher remoteJobs_class_1 3139576
scalar FogSequentialForward.fog[99].dispatcher localJobs_class_1 822192
scalar FogSequentialForward.fog[99].dispatcher droppedJobsSLA_class_1 78378
scalar FogSequentialForward.fog[99].server[0] rho 0.999964594841
scalar FogSequentialForward.fog[99].server[0] congestionRatio 0
scalar FogSequentialForward.fog[99].server[0] totalJobs 822192
scalar FogSequentialForward.fog[99].server[0] droppedJobsQueue 1
scalar FogSequentialForward.fog[99].server[0] droppedJobsTimout 0
scalar FogSequentialForward.fog[99].server[0] droppedJobsSLA 241921
scalar FogSequentialForward.fog[99].server[0] droppedJobsTotal 241922
scalar FogSequentialForward.sink avg_responseTime_1 0.11285906405856
scalar FogSequentialForward.sink p90_responseTime_1 0.015503892514
scalar FogSequentialForward.sink med_responseTime_1 0.015503892514
scalar FogSequentialForward.sink avg_delayTime_1 0
scalar FogSequentialForward.sink p90_delayTime_1 0
scalar FogSequentialForward.sink med_delayTime_1 0
scalar FogSequentialForward.sink avg_queuingTime_1 0.069101571854098
scalar FogSequentialForward.sink p90_queuingTime_1 0
scalar FogSequentialForward.sink med_queuingTime_1 0
scalar FogSequentialForward.sink avg_serviceTime_1 0.01670874940937
scalar FogSequentialForward.sink p90_serviceTime_1 0.01474163093
scalar FogSequentialForward.sink med_serviceTime_1 0.01474163093
scalar FogSequentialForward.sink avg_balancerTime_1 0.027048742802743
scalar FogSequentialForward.sink p90_balancerTime_1 0
scalar FogSequentialForward.sink med_balancerTime_1 0
scalar FogSequentialForward.sink avg_balancerCount_1 2.6196851973122
scalar FogSequentialForward.sink p90_balancerCount_1 1
scalar FogSequentialForward.sink med_balancerCount_1 1

