version 2
run Fog-mul_10-rho_09-thr_18-3-20190714-11:03:24-121198
attr configname Fog-mul_10-rho_09-thr_18
attr datetime 20190714-11:03:24
attr experiment Fog-mul_10-rho_09-thr_18
attr inifile FogSequentialForward.ini
attr iterationvars ""
attr iterationvarsf ""
attr measurement ""
attr network FogSequentialForward
attr processid 121198
attr repetition 3
attr replication #3
attr resultdir results
attr runnumber 3
attr seedset 3
param FogSequentialForward.proctimeMul 1.0
param FogSequentialForward.rho 0.9
param FogSequentialForward.fog[*].dispatcher.thr 18
param FogSequentialForward.nSources 100
param FogSequentialForward.rho 0.9
param FogSequentialForward.proctimeMul 1.0
param FogSequentialForward.source[*].appId 1
param FogSequentialForward.source[*].realTime true
param FogSequentialForward.source[*].multiHop true
param FogSequentialForward.fog[*].nServers 1
param FogSequentialForward.fog[*].dispatcher.fanOut 1
param FogSequentialForward.fog[*].server[*].timeSlice -1s
param FogSequentialForward.fog[*].server[*].timeout -1s
param FogSequentialForward.fog[*].server[*].capacity 20
param FogSequentialForward.fog[*].server[*].fifo true
param FogSequentialForward.fog[*].server[*].maxServiceTime -1s
param FogSequentialForward.fog[*].dispatcher.thr 1

scalar FogSequentialForward.fog[0].dispatcher localJobs 16212
scalar FogSequentialForward.fog[0].dispatcher internalJobs 16479
scalar FogSequentialForward.fog[0].dispatcher externalJobs 1746938
scalar FogSequentialForward.fog[0].dispatcher remoteJobs 1747201
scalar FogSequentialForward.fog[0].dispatcher probeQueries 0
scalar FogSequentialForward.fog[0].dispatcher probeAnswers 0
scalar FogSequentialForward.fog[0].dispatcher droppedJobsSLA 4
scalar FogSequentialForward.fog[0].dispatcher jobs_class_1 1763417
scalar FogSequentialForward.fog[0].dispatcher remoteJobs_class_1 1747201
scalar FogSequentialForward.fog[0].dispatcher localJobs_class_1 16212
scalar FogSequentialForward.fog[0].dispatcher droppedJobsSLA_class_1 4
scalar FogSequentialForward.fog[0].server[0] rho 1
scalar FogSequentialForward.fog[0].server[0] congestionRatio 0
scalar FogSequentialForward.fog[0].server[0] totalJobs 16212
scalar FogSequentialForward.fog[0].server[0] droppedJobsQueue 2383
scalar FogSequentialForward.fog[0].server[0] droppedJobsTimout 0
scalar FogSequentialForward.fog[0].server[0] droppedJobsSLA 10564
scalar FogSequentialForward.fog[0].server[0] droppedJobsTotal 12947
scalar FogSequentialForward.fog[1].dispatcher localJobs 16214
scalar FogSequentialForward.fog[1].dispatcher internalJobs 16464
scalar FogSequentialForward.fog[1].dispatcher externalJobs 1747185
scalar FogSequentialForward.fog[1].dispatcher remoteJobs 1747433
scalar FogSequentialForward.fog[1].dispatcher probeQueries 0
scalar FogSequentialForward.fog[1].dispatcher probeAnswers 0
scalar FogSequentialForward.fog[1].dispatcher droppedJobsSLA 2
scalar FogSequentialForward.fog[1].dispatcher jobs_class_1 1763649
scalar FogSequentialForward.fog[1].dispatcher remoteJobs_class_1 1747433
scalar FogSequentialForward.fog[1].dispatcher localJobs_class_1 16214
scalar FogSequentialForward.fog[1].dispatcher droppedJobsSLA_class_1 2
scalar FogSequentialForward.fog[1].server[0] rho 1
scalar FogSequentialForward.fog[1].server[0] congestionRatio 0
scalar FogSequentialForward.fog[1].server[0] totalJobs 16214
scalar FogSequentialForward.fog[1].server[0] droppedJobsQueue 2386
scalar FogSequentialForward.fog[1].server[0] droppedJobsTimout 0
scalar FogSequentialForward.fog[1].server[0] droppedJobsSLA 10523
scalar FogSequentialForward.fog[1].server[0] droppedJobsTotal 12909
scalar FogSequentialForward.fog[2].dispatcher localJobs 16226
scalar FogSequentialForward.fog[2].dispatcher internalJobs 16285
scalar FogSequentialForward.fog[2].dispatcher externalJobs 1747576
scalar FogSequentialForward.fog[2].dispatcher remoteJobs 1747630
scalar FogSequentialForward.fog[2].dispatcher probeQueries 0
scalar FogSequentialForward.fog[2].dispatcher probeAnswers 0
scalar FogSequentialForward.fog[2].dispatcher droppedJobsSLA 5
scalar FogSequentialForward.fog[2].dispatcher jobs_class_1 1763861
scalar FogSequentialForward.fog[2].dispatcher remoteJobs_class_1 1747630
scalar FogSequentialForward.fog[2].dispatcher localJobs_class_1 16226
scalar FogSequentialForward.fog[2].dispatcher droppedJobsSLA_class_1 5
scalar FogSequentialForward.fog[2].server[0] rho 1
scalar FogSequentialForward.fog[2].server[0] congestionRatio 0
scalar FogSequentialForward.fog[2].server[0] totalJobs 16226
scalar FogSequentialForward.fog[2].server[0] droppedJobsQueue 2396
scalar FogSequentialForward.fog[2].server[0] droppedJobsTimout 0
scalar FogSequentialForward.fog[2].server[0] droppedJobsSLA 10515
scalar FogSequentialForward.fog[2].server[0] droppedJobsTotal 12911
scalar FogSequentialForward.fog[3].dispatcher localJobs 16173
scalar FogSequentialForward.fog[3].dispatcher internalJobs 16381
scalar FogSequentialForward.fog[3].dispatcher externalJobs 1749447
scalar FogSequentialForward.fog[3].dispatcher remoteJobs 1749652
scalar FogSequentialForward.fog[3].dispatcher probeQueries 0
scalar FogSequentialForward.fog[3].dispatcher probeAnswers 0
scalar FogSequentialForward.fog[3].dispatcher droppedJobsSLA 3
scalar FogSequentialForward.fog[3].dispatcher jobs_class_1 1765828
scalar FogSequentialForward.fog[3].dispatcher remoteJobs_class_1 1749652
scalar FogSequentialForward.fog[3].dispatcher localJobs_class_1 16173
scalar FogSequentialForward.fog[3].dispatcher droppedJobsSLA_class_1 3
scalar FogSequentialForward.fog[3].server[0] rho 1
scalar FogSequentialForward.fog[3].server[0] congestionRatio 0
scalar FogSequentialForward.fog[3].server[0] totalJobs 16173
scalar FogSequentialForward.fog[3].server[0] droppedJobsQueue 2374
scalar FogSequentialForward.fog[3].server[0] droppedJobsTimout 0
scalar FogSequentialForward.fog[3].server[0] droppedJobsSLA 10526
scalar FogSequentialForward.fog[3].server[0] droppedJobsTotal 12900
scalar FogSequentialForward.fog[4].dispatcher localJobs 16201
scalar FogSequentialForward.fog[4].dispatcher internalJobs 16061
scalar FogSequentialForward.fog[4].dispatcher externalJobs 1748176
scalar FogSequentialForward.fog[4].dispatcher remoteJobs 1748033
scalar FogSequentialForward.fog[4].dispatcher probeQueries 0
scalar FogSequentialForward.fog[4].dispatcher probeAnswers 0
scalar FogSequentialForward.fog[4].dispatcher droppedJobsSLA 3
scalar FogSequentialForward.fog[4].dispatcher jobs_class_1 1764237
scalar FogSequentialForward.fog[4].dispatcher remoteJobs_class_1 1748033
scalar FogSequentialForward.fog[4].dispatcher localJobs_class_1 16201
scalar FogSequentialForward.fog[4].dispatcher droppedJobsSLA_class_1 3
scalar FogSequentialForward.fog[4].server[0] rho 1
scalar FogSequentialForward.fog[4].server[0] congestionRatio 0
scalar FogSequentialForward.fog[4].server[0] totalJobs 16201
scalar FogSequentialForward.fog[4].server[0] droppedJobsQueue 2386
scalar FogSequentialForward.fog[4].server[0] droppedJobsTimout 0
scalar FogSequentialForward.fog[4].server[0] droppedJobsSLA 10468
scalar FogSequentialForward.fog[4].server[0] droppedJobsTotal 12854
scalar FogSequentialForward.fog[5].dispatcher localJobs 16191
scalar FogSequentialForward.fog[5].dispatcher internalJobs 16242
scalar FogSequentialForward.fog[5].dispatcher externalJobs 1747888
scalar FogSequentialForward.fog[5].dispatcher remoteJobs 1747936
scalar FogSequentialForward.fog[5].dispatcher probeQueries 0
scalar FogSequentialForward.fog[5].dispatcher probeAnswers 0
scalar FogSequentialForward.fog[5].dispatcher droppedJobsSLA 3
scalar FogSequentialForward.fog[5].dispatcher jobs_class_1 1764130
scalar FogSequentialForward.fog[5].dispatcher remoteJobs_class_1 1747936
scalar FogSequentialForward.fog[5].dispatcher localJobs_class_1 16191
scalar FogSequentialForward.fog[5].dispatcher droppedJobsSLA_class_1 3
scalar FogSequentialForward.fog[5].server[0] rho 1
scalar FogSequentialForward.fog[5].server[0] congestionRatio 0
scalar FogSequentialForward.fog[5].server[0] totalJobs 16191
scalar FogSequentialForward.fog[5].server[0] droppedJobsQueue 2379
scalar FogSequentialForward.fog[5].server[0] droppedJobsTimout 0
scalar FogSequentialForward.fog[5].server[0] droppedJobsSLA 10536
scalar FogSequentialForward.fog[5].server[0] droppedJobsTotal 12915
scalar FogSequentialForward.fog[6].dispatcher localJobs 16279
scalar FogSequentialForward.fog[6].dispatcher internalJobs 16156
scalar FogSequentialForward.fog[6].dispatcher externalJobs 1747910
scalar FogSequentialForward.fog[6].dispatcher remoteJobs 1747784
scalar FogSequentialForward.fog[6].dispatcher probeQueries 0
scalar FogSequentialForward.fog[6].dispatcher probeAnswers 0
scalar FogSequentialForward.fog[6].dispatcher droppedJobsSLA 3
scalar FogSequentialForward.fog[6].dispatcher jobs_class_1 1764066
scalar FogSequentialForward.fog[6].dispatcher remoteJobs_class_1 1747784
scalar FogSequentialForward.fog[6].dispatcher localJobs_class_1 16279
scalar FogSequentialForward.fog[6].dispatcher droppedJobsSLA_class_1 3
scalar FogSequentialForward.fog[6].server[0] rho 1
scalar FogSequentialForward.fog[6].server[0] congestionRatio 0
scalar FogSequentialForward.fog[6].server[0] totalJobs 16279
scalar FogSequentialForward.fog[6].server[0] droppedJobsQueue 2415
scalar FogSequentialForward.fog[6].server[0] droppedJobsTimout 0
scalar FogSequentialForward.fog[6].server[0] droppedJobsSLA 10577
scalar FogSequentialForward.fog[6].server[0] droppedJobsTotal 12992
scalar FogSequentialForward.fog[7].dispatcher localJobs 16219
scalar FogSequentialForward.fog[7].dispatcher internalJobs 16101
scalar FogSequentialForward.fog[7].dispatcher externalJobs 1747847
scalar FogSequentialForward.fog[7].dispatcher remoteJobs 1747727
scalar FogSequentialForward.fog[7].dispatcher probeQueries 0
scalar FogSequentialForward.fog[7].dispatcher probeAnswers 0
scalar FogSequentialForward.fog[7].dispatcher droppedJobsSLA 2
scalar FogSequentialForward.fog[7].dispatcher jobs_class_1 1763948
scalar FogSequentialForward.fog[7].dispatcher remoteJobs_class_1 1747727
scalar FogSequentialForward.fog[7].dispatcher localJobs_class_1 16219
scalar FogSequentialForward.fog[7].dispatcher droppedJobsSLA_class_1 2
scalar FogSequentialForward.fog[7].server[0] rho 1
scalar FogSequentialForward.fog[7].server[0] congestionRatio 0
scalar FogSequentialForward.fog[7].server[0] totalJobs 16219
scalar FogSequentialForward.fog[7].server[0] droppedJobsQueue 2379
scalar FogSequentialForward.fog[7].server[0] droppedJobsTimout 0
scalar FogSequentialForward.fog[7].server[0] droppedJobsSLA 10488
scalar FogSequentialForward.fog[7].server[0] droppedJobsTotal 12867
scalar FogSequentialForward.fog[8].dispatcher localJobs 16220
scalar FogSequentialForward.fog[8].dispatcher internalJobs 16542
scalar FogSequentialForward.fog[8].dispatcher externalJobs 1749132
scalar FogSequentialForward.fog[8].dispatcher remoteJobs 1749451
scalar FogSequentialForward.fog[8].dispatcher probeQueries 0
scalar FogSequentialForward.fog[8].dispatcher probeAnswers 0
scalar FogSequentialForward.fog[8].dispatcher droppedJobsSLA 3
scalar FogSequentialForward.fog[8].dispatcher jobs_class_1 1765674
scalar FogSequentialForward.fog[8].dispatcher remoteJobs_class_1 1749451
scalar FogSequentialForward.fog[8].dispatcher localJobs_class_1 16220
scalar FogSequentialForward.fog[8].dispatcher droppedJobsSLA_class_1 3
scalar FogSequentialForward.fog[8].server[0] rho 1
scalar FogSequentialForward.fog[8].server[0] congestionRatio 0
scalar FogSequentialForward.fog[8].server[0] totalJobs 16220
scalar FogSequentialForward.fog[8].server[0] droppedJobsQueue 2390
scalar FogSequentialForward.fog[8].server[0] droppedJobsTimout 0
scalar FogSequentialForward.fog[8].server[0] droppedJobsSLA 10543
scalar FogSequentialForward.fog[8].server[0] droppedJobsTotal 12933
scalar FogSequentialForward.fog[9].dispatcher localJobs 16175
scalar FogSequentialForward.fog[9].dispatcher internalJobs 16449
scalar FogSequentialForward.fog[9].dispatcher externalJobs 1748008
scalar FogSequentialForward.fog[9].dispatcher remoteJobs 1748277
scalar FogSequentialForward.fog[9].dispatcher probeQueries 0
scalar FogSequentialForward.fog[9].dispatcher probeAnswers 0
scalar FogSequentialForward.fog[9].dispatcher droppedJobsSLA 5
scalar FogSequentialForward.fog[9].dispatcher jobs_class_1 1764457
scalar FogSequentialForward.fog[9].dispatcher remoteJobs_class_1 1748277
scalar FogSequentialForward.fog[9].dispatcher localJobs_class_1 16175
scalar FogSequentialForward.fog[9].dispatcher droppedJobsSLA_class_1 5
scalar FogSequentialForward.fog[9].server[0] rho 1
scalar FogSequentialForward.fog[9].server[0] congestionRatio 0
scalar FogSequentialForward.fog[9].server[0] totalJobs 16175
scalar FogSequentialForward.fog[9].server[0] droppedJobsQueue 2376
scalar FogSequentialForward.fog[9].server[0] droppedJobsTimout 0
scalar FogSequentialForward.fog[9].server[0] droppedJobsSLA 10551
scalar FogSequentialForward.fog[9].server[0] droppedJobsTotal 12927
scalar FogSequentialForward.fog[10].dispatcher localJobs 16232
scalar FogSequentialForward.fog[10].dispatcher internalJobs 16374
scalar FogSequentialForward.fog[10].dispatcher externalJobs 1747061
scalar FogSequentialForward.fog[10].dispatcher remoteJobs 1747200
scalar FogSequentialForward.fog[10].dispatcher probeQueries 0
scalar FogSequentialForward.fog[10].dispatcher probeAnswers 0
scalar FogSequentialForward.fog[10].dispatcher droppedJobsSLA 3
scalar FogSequentialForward.fog[10].dispatcher jobs_class_1 1763435
scalar FogSequentialForward.fog[10].dispatcher remoteJobs_class_1 1747200
scalar FogSequentialForward.fog[10].dispatcher localJobs_class_1 16232
scalar FogSequentialForward.fog[10].dispatcher droppedJobsSLA_class_1 3
scalar FogSequentialForward.fog[10].server[0] rho 1
scalar FogSequentialForward.fog[10].server[0] congestionRatio 0
scalar FogSequentialForward.fog[10].server[0] totalJobs 16232
scalar FogSequentialForward.fog[10].server[0] droppedJobsQueue 2393
scalar FogSequentialForward.fog[10].server[0] droppedJobsTimout 0
scalar FogSequentialForward.fog[10].server[0] droppedJobsSLA 10535
scalar FogSequentialForward.fog[10].server[0] droppedJobsTotal 12928
scalar FogSequentialForward.fog[11].dispatcher localJobs 16206
scalar FogSequentialForward.fog[11].dispatcher internalJobs 16236
scalar FogSequentialForward.fog[11].dispatcher externalJobs 1749466
scalar FogSequentialForward.fog[11].dispatcher remoteJobs 1749491
scalar FogSequentialForward.fog[11].dispatcher probeQueries 0
scalar FogSequentialForward.fog[11].dispatcher probeAnswers 0
scalar FogSequentialForward.fog[11].dispatcher droppedJobsSLA 5
scalar FogSequentialForward.fog[11].dispatcher jobs_class_1 1765702
scalar FogSequentialForward.fog[11].dispatcher remoteJobs_class_1 1749491
scalar FogSequentialForward.fog[11].dispatcher localJobs_class_1 16206
scalar FogSequentialForward.fog[11].dispatcher droppedJobsSLA_class_1 5
scalar FogSequentialForward.fog[11].server[0] rho 0.9999253153801
scalar FogSequentialForward.fog[11].server[0] congestionRatio 0
scalar FogSequentialForward.fog[11].server[0] totalJobs 16206
scalar FogSequentialForward.fog[11].server[0] droppedJobsQueue 2376
scalar FogSequentialForward.fog[11].server[0] droppedJobsTimout 0
scalar FogSequentialForward.fog[11].server[0] droppedJobsSLA 10502
scalar FogSequentialForward.fog[11].server[0] droppedJobsTotal 12878
scalar FogSequentialForward.fog[12].dispatcher localJobs 16277
scalar FogSequentialForward.fog[12].dispatcher internalJobs 16084
scalar FogSequentialForward.fog[12].dispatcher externalJobs 1748895
scalar FogSequentialForward.fog[12].dispatcher remoteJobs 1748701
scalar FogSequentialForward.fog[12].dispatcher probeQueries 0
scalar FogSequentialForward.fog[12].dispatcher probeAnswers 0
scalar FogSequentialForward.fog[12].dispatcher droppedJobsSLA 1
scalar FogSequentialForward.fog[12].dispatcher jobs_class_1 1764979
scalar FogSequentialForward.fog[12].dispatcher remoteJobs_class_1 1748701
scalar FogSequentialForward.fog[12].dispatcher localJobs_class_1 16277
scalar FogSequentialForward.fog[12].dispatcher droppedJobsSLA_class_1 1
scalar FogSequentialForward.fog[12].server[0] rho 1
scalar FogSequentialForward.fog[12].server[0] congestionRatio 0
scalar FogSequentialForward.fog[12].server[0] totalJobs 16277
scalar FogSequentialForward.fog[12].server[0] droppedJobsQueue 2391
scalar FogSequentialForward.fog[12].server[0] droppedJobsTimout 0
scalar FogSequentialForward.fog[12].server[0] droppedJobsSLA 10526
scalar FogSequentialForward.fog[12].server[0] droppedJobsTotal 12917
scalar FogSequentialForward.fog[13].dispatcher localJobs 16230
scalar FogSequentialForward.fog[13].dispatcher internalJobs 16167
scalar FogSequentialForward.fog[13].dispatcher externalJobs 1748286
scalar FogSequentialForward.fog[13].dispatcher remoteJobs 1748217
scalar FogSequentialForward.fog[13].dispatcher probeQueries 0
scalar FogSequentialForward.fog[13].dispatcher probeAnswers 0
scalar FogSequentialForward.fog[13].dispatcher droppedJobsSLA 6
scalar FogSequentialForward.fog[13].dispatcher jobs_class_1 1764453
scalar FogSequentialForward.fog[13].dispatcher remoteJobs_class_1 1748217
scalar FogSequentialForward.fog[13].dispatcher localJobs_class_1 16230
scalar FogSequentialForward.fog[13].dispatcher droppedJobsSLA_class_1 6
scalar FogSequentialForward.fog[13].server[0] rho 1
scalar FogSequentialForward.fog[13].server[0] congestionRatio 0
scalar FogSequentialForward.fog[13].server[0] totalJobs 16230
scalar FogSequentialForward.fog[13].server[0] droppedJobsQueue 2387
scalar FogSequentialForward.fog[13].server[0] droppedJobsTimout 0
scalar FogSequentialForward.fog[13].server[0] droppedJobsSLA 10483
scalar FogSequentialForward.fog[13].server[0] droppedJobsTotal 12870
scalar FogSequentialForward.fog[14].dispatcher localJobs 16188
scalar FogSequentialForward.fog[14].dispatcher internalJobs 16393
scalar FogSequentialForward.fog[14].dispatcher externalJobs 1746964
scalar FogSequentialForward.fog[14].dispatcher remoteJobs 1747166
scalar FogSequentialForward.fog[14].dispatcher probeQueries 0
scalar FogSequentialForward.fog[14].dispatcher probeAnswers 0
scalar FogSequentialForward.fog[14].dispatcher droppedJobsSLA 3
scalar FogSequentialForward.fog[14].dispatcher jobs_class_1 1763357
scalar FogSequentialForward.fog[14].dispatcher remoteJobs_class_1 1747166
scalar FogSequentialForward.fog[14].dispatcher localJobs_class_1 16188
scalar FogSequentialForward.fog[14].dispatcher droppedJobsSLA_class_1 3
scalar FogSequentialForward.fog[14].server[0] rho 1
scalar FogSequentialForward.fog[14].server[0] congestionRatio 0
scalar FogSequentialForward.fog[14].server[0] totalJobs 16188
scalar FogSequentialForward.fog[14].server[0] droppedJobsQueue 2375
scalar FogSequentialForward.fog[14].server[0] droppedJobsTimout 0
scalar FogSequentialForward.fog[14].server[0] droppedJobsSLA 10526
scalar FogSequentialForward.fog[14].server[0] droppedJobsTotal 12901
scalar FogSequentialForward.fog[15].dispatcher localJobs 16193
scalar FogSequentialForward.fog[15].dispatcher internalJobs 16171
scalar FogSequentialForward.fog[15].dispatcher externalJobs 1748662
scalar FogSequentialForward.fog[15].dispatcher remoteJobs 1748638
scalar FogSequentialForward.fog[15].dispatcher probeQueries 0
scalar FogSequentialForward.fog[15].dispatcher probeAnswers 0
scalar FogSequentialForward.fog[15].dispatcher droppedJobsSLA 2
scalar FogSequentialForward.fog[15].dispatcher jobs_class_1 1764833
scalar FogSequentialForward.fog[15].dispatcher remoteJobs_class_1 1748638
scalar FogSequentialForward.fog[15].dispatcher localJobs_class_1 16193
scalar FogSequentialForward.fog[15].dispatcher droppedJobsSLA_class_1 2
scalar FogSequentialForward.fog[15].server[0] rho 1
scalar FogSequentialForward.fog[15].server[0] congestionRatio 0
scalar FogSequentialForward.fog[15].server[0] totalJobs 16193
scalar FogSequentialForward.fog[15].server[0] droppedJobsQueue 2365
scalar FogSequentialForward.fog[15].server[0] droppedJobsTimout 0
scalar FogSequentialForward.fog[15].server[0] droppedJobsSLA 10551
scalar FogSequentialForward.fog[15].server[0] droppedJobsTotal 12916
scalar FogSequentialForward.fog[16].dispatcher localJobs 16256
scalar FogSequentialForward.fog[16].dispatcher internalJobs 16245
scalar FogSequentialForward.fog[16].dispatcher externalJobs 1748058
scalar FogSequentialForward.fog[16].dispatcher remoteJobs 1748044
scalar FogSequentialForward.fog[16].dispatcher probeQueries 0
scalar FogSequentialForward.fog[16].dispatcher probeAnswers 0
scalar FogSequentialForward.fog[16].dispatcher droppedJobsSLA 3
scalar FogSequentialForward.fog[16].dispatcher jobs_class_1 1764303
scalar FogSequentialForward.fog[16].dispatcher remoteJobs_class_1 1748044
scalar FogSequentialForward.fog[16].dispatcher localJobs_class_1 16256
scalar FogSequentialForward.fog[16].dispatcher droppedJobsSLA_class_1 3
scalar FogSequentialForward.fog[16].server[0] rho 1
scalar FogSequentialForward.fog[16].server[0] congestionRatio 0
scalar FogSequentialForward.fog[16].server[0] totalJobs 16256
scalar FogSequentialForward.fog[16].server[0] droppedJobsQueue 2407
scalar FogSequentialForward.fog[16].server[0] droppedJobsTimout 0
scalar FogSequentialForward.fog[16].server[0] droppedJobsSLA 10601
scalar FogSequentialForward.fog[16].server[0] droppedJobsTotal 13008
scalar FogSequentialForward.fog[17].dispatcher localJobs 16218
scalar FogSequentialForward.fog[17].dispatcher internalJobs 16039
scalar FogSequentialForward.fog[17].dispatcher externalJobs 1750907
scalar FogSequentialForward.fog[17].dispatcher remoteJobs 1750725
scalar FogSequentialForward.fog[17].dispatcher probeQueries 0
scalar FogSequentialForward.fog[17].dispatcher probeAnswers 0
scalar FogSequentialForward.fog[17].dispatcher droppedJobsSLA 3
scalar FogSequentialForward.fog[17].dispatcher jobs_class_1 1766946
scalar FogSequentialForward.fog[17].dispatcher remoteJobs_class_1 1750725
scalar FogSequentialForward.fog[17].dispatcher localJobs_class_1 16218
scalar FogSequentialForward.fog[17].dispatcher droppedJobsSLA_class_1 3
scalar FogSequentialForward.fog[17].server[0] rho 1
scalar FogSequentialForward.fog[17].server[0] congestionRatio 0
scalar FogSequentialForward.fog[17].server[0] totalJobs 16218
scalar FogSequentialForward.fog[17].server[0] droppedJobsQueue 2373
scalar FogSequentialForward.fog[17].server[0] droppedJobsTimout 0
scalar FogSequentialForward.fog[17].server[0] droppedJobsSLA 10531
scalar FogSequentialForward.fog[17].server[0] droppedJobsTotal 12904
scalar FogSequentialForward.fog[18].dispatcher localJobs 16194
scalar FogSequentialForward.fog[18].dispatcher internalJobs 15931
scalar FogSequentialForward.fog[18].dispatcher externalJobs 1749356
scalar FogSequentialForward.fog[18].dispatcher remoteJobs 1749092
scalar FogSequentialForward.fog[18].dispatcher probeQueries 0
scalar FogSequentialForward.fog[18].dispatcher probeAnswers 0
scalar FogSequentialForward.fog[18].dispatcher droppedJobsSLA 1
scalar FogSequentialForward.fog[18].dispatcher jobs_class_1 1765287
scalar FogSequentialForward.fog[18].dispatcher remoteJobs_class_1 1749092
scalar FogSequentialForward.fog[18].dispatcher localJobs_class_1 16194
scalar FogSequentialForward.fog[18].dispatcher droppedJobsSLA_class_1 1
scalar FogSequentialForward.fog[18].server[0] rho 1
scalar FogSequentialForward.fog[18].server[0] congestionRatio 0
scalar FogSequentialForward.fog[18].server[0] totalJobs 16194
scalar FogSequentialForward.fog[18].server[0] droppedJobsQueue 2384
scalar FogSequentialForward.fog[18].server[0] droppedJobsTimout 0
scalar FogSequentialForward.fog[18].server[0] droppedJobsSLA 10471
scalar FogSequentialForward.fog[18].server[0] droppedJobsTotal 12855
scalar FogSequentialForward.fog[19].dispatcher localJobs 16251
scalar FogSequentialForward.fog[19].dispatcher internalJobs 16358
scalar FogSequentialForward.fog[19].dispatcher externalJobs 1749321
scalar FogSequentialForward.fog[19].dispatcher remoteJobs 1749424
scalar FogSequentialForward.fog[19].dispatcher probeQueries 0
scalar FogSequentialForward.fog[19].dispatcher probeAnswers 0
scalar FogSequentialForward.fog[19].dispatcher droppedJobsSLA 4
scalar FogSequentialForward.fog[19].dispatcher jobs_class_1 1765679
scalar FogSequentialForward.fog[19].dispatcher remoteJobs_class_1 1749424
scalar FogSequentialForward.fog[19].dispatcher localJobs_class_1 16251
scalar FogSequentialForward.fog[19].dispatcher droppedJobsSLA_class_1 4
scalar FogSequentialForward.fog[19].server[0] rho 1
scalar FogSequentialForward.fog[19].server[0] congestionRatio 0
scalar FogSequentialForward.fog[19].server[0] totalJobs 16251
scalar FogSequentialForward.fog[19].server[0] droppedJobsQueue 2388
scalar FogSequentialForward.fog[19].server[0] droppedJobsTimout 0
scalar FogSequentialForward.fog[19].server[0] droppedJobsSLA 10546
scalar FogSequentialForward.fog[19].server[0] droppedJobsTotal 12934
scalar FogSequentialForward.fog[20].dispatcher localJobs 16212
scalar FogSequentialForward.fog[20].dispatcher internalJobs 16045
scalar FogSequentialForward.fog[20].dispatcher externalJobs 1749675
scalar FogSequentialForward.fog[20].dispatcher remoteJobs 1749506
scalar FogSequentialForward.fog[20].dispatcher probeQueries 0
scalar FogSequentialForward.fog[20].dispatcher probeAnswers 0
scalar FogSequentialForward.fog[20].dispatcher droppedJobsSLA 2
scalar FogSequentialForward.fog[20].dispatcher jobs_class_1 1765720
scalar FogSequentialForward.fog[20].dispatcher remoteJobs_class_1 1749506
scalar FogSequentialForward.fog[20].dispatcher localJobs_class_1 16212
scalar FogSequentialForward.fog[20].dispatcher droppedJobsSLA_class_1 2
scalar FogSequentialForward.fog[20].server[0] rho 1
scalar FogSequentialForward.fog[20].server[0] congestionRatio 0
scalar FogSequentialForward.fog[20].server[0] totalJobs 16212
scalar FogSequentialForward.fog[20].server[0] droppedJobsQueue 2384
scalar FogSequentialForward.fog[20].server[0] droppedJobsTimout 0
scalar FogSequentialForward.fog[20].server[0] droppedJobsSLA 10543
scalar FogSequentialForward.fog[20].server[0] droppedJobsTotal 12927
scalar FogSequentialForward.fog[21].dispatcher localJobs 16200
scalar FogSequentialForward.fog[21].dispatcher internalJobs 16279
scalar FogSequentialForward.fog[21].dispatcher externalJobs 1748568
scalar FogSequentialForward.fog[21].dispatcher remoteJobs 1748642
scalar FogSequentialForward.fog[21].dispatcher probeQueries 0
scalar FogSequentialForward.fog[21].dispatcher probeAnswers 0
scalar FogSequentialForward.fog[21].dispatcher droppedJobsSLA 5
scalar FogSequentialForward.fog[21].dispatcher jobs_class_1 1764847
scalar FogSequentialForward.fog[21].dispatcher remoteJobs_class_1 1748642
scalar FogSequentialForward.fog[21].dispatcher localJobs_class_1 16200
scalar FogSequentialForward.fog[21].dispatcher droppedJobsSLA_class_1 5
scalar FogSequentialForward.fog[21].server[0] rho 1
scalar FogSequentialForward.fog[21].server[0] congestionRatio 0
scalar FogSequentialForward.fog[21].server[0] totalJobs 16200
scalar FogSequentialForward.fog[21].server[0] droppedJobsQueue 2375
scalar FogSequentialForward.fog[21].server[0] droppedJobsTimout 0
scalar FogSequentialForward.fog[21].server[0] droppedJobsSLA 10510
scalar FogSequentialForward.fog[21].server[0] droppedJobsTotal 12885
scalar FogSequentialForward.fog[22].dispatcher localJobs 16209
scalar FogSequentialForward.fog[22].dispatcher internalJobs 16285
scalar FogSequentialForward.fog[22].dispatcher externalJobs 1748187
scalar FogSequentialForward.fog[22].dispatcher remoteJobs 1748260
scalar FogSequentialForward.fog[22].dispatcher probeQueries 0
scalar FogSequentialForward.fog[22].dispatcher probeAnswers 0
scalar FogSequentialForward.fog[22].dispatcher droppedJobsSLA 3
scalar FogSequentialForward.fog[22].dispatcher jobs_class_1 1764472
scalar FogSequentialForward.fog[22].dispatcher remoteJobs_class_1 1748260
scalar FogSequentialForward.fog[22].dispatcher localJobs_class_1 16209
scalar FogSequentialForward.fog[22].dispatcher droppedJobsSLA_class_1 3
scalar FogSequentialForward.fog[22].server[0] rho 1
scalar FogSequentialForward.fog[22].server[0] congestionRatio 0
scalar FogSequentialForward.fog[22].server[0] totalJobs 16209
scalar FogSequentialForward.fog[22].server[0] droppedJobsQueue 2398
scalar FogSequentialForward.fog[22].server[0] droppedJobsTimout 0
scalar FogSequentialForward.fog[22].server[0] droppedJobsSLA 10541
scalar FogSequentialForward.fog[22].server[0] droppedJobsTotal 12939
scalar FogSequentialForward.fog[23].dispatcher localJobs 16221
scalar FogSequentialForward.fog[23].dispatcher internalJobs 16350
scalar FogSequentialForward.fog[23].dispatcher externalJobs 1749181
scalar FogSequentialForward.fog[23].dispatcher remoteJobs 1749307
scalar FogSequentialForward.fog[23].dispatcher probeQueries 0
scalar FogSequentialForward.fog[23].dispatcher probeAnswers 0
scalar FogSequentialForward.fog[23].dispatcher droppedJobsSLA 3
scalar FogSequentialForward.fog[23].dispatcher jobs_class_1 1765531
scalar FogSequentialForward.fog[23].dispatcher remoteJobs_class_1 1749307
scalar FogSequentialForward.fog[23].dispatcher localJobs_class_1 16221
scalar FogSequentialForward.fog[23].dispatcher droppedJobsSLA_class_1 3
scalar FogSequentialForward.fog[23].server[0] rho 1
scalar FogSequentialForward.fog[23].server[0] congestionRatio 0
scalar FogSequentialForward.fog[23].server[0] totalJobs 16221
scalar FogSequentialForward.fog[23].server[0] droppedJobsQueue 2392
scalar FogSequentialForward.fog[23].server[0] droppedJobsTimout 0
scalar FogSequentialForward.fog[23].server[0] droppedJobsSLA 10557
scalar FogSequentialForward.fog[23].server[0] droppedJobsTotal 12949
scalar FogSequentialForward.fog[24].dispatcher localJobs 16159
scalar FogSequentialForward.fog[24].dispatcher internalJobs 16175
scalar FogSequentialForward.fog[24].dispatcher externalJobs 1746250
scalar FogSequentialForward.fog[24].dispatcher remoteJobs 1746263
scalar FogSequentialForward.fog[24].dispatcher probeQueries 0
scalar FogSequentialForward.fog[24].dispatcher probeAnswers 0
scalar FogSequentialForward.fog[24].dispatcher droppedJobsSLA 3
scalar FogSequentialForward.fog[24].dispatcher jobs_class_1 1762425
scalar FogSequentialForward.fog[24].dispatcher remoteJobs_class_1 1746263
scalar FogSequentialForward.fog[24].dispatcher localJobs_class_1 16159
scalar FogSequentialForward.fog[24].dispatcher droppedJobsSLA_class_1 3
scalar FogSequentialForward.fog[24].server[0] rho 1
scalar FogSequentialForward.fog[24].server[0] congestionRatio 0
scalar FogSequentialForward.fog[24].server[0] totalJobs 16159
scalar FogSequentialForward.fog[24].server[0] droppedJobsQueue 2361
scalar FogSequentialForward.fog[24].server[0] droppedJobsTimout 0
scalar FogSequentialForward.fog[24].server[0] droppedJobsSLA 10528
scalar FogSequentialForward.fog[24].server[0] droppedJobsTotal 12889
scalar FogSequentialForward.fog[25].dispatcher localJobs 16218
scalar FogSequentialForward.fog[25].dispatcher internalJobs 16221
scalar FogSequentialForward.fog[25].dispatcher externalJobs 1748385
scalar FogSequentialForward.fog[25].dispatcher remoteJobs 1748386
scalar FogSequentialForward.fog[25].dispatcher probeQueries 0
scalar FogSequentialForward.fog[25].dispatcher probeAnswers 0
scalar FogSequentialForward.fog[25].dispatcher droppedJobsSLA 2
scalar FogSequentialForward.fog[25].dispatcher jobs_class_1 1764606
scalar FogSequentialForward.fog[25].dispatcher remoteJobs_class_1 1748386
scalar FogSequentialForward.fog[25].dispatcher localJobs_class_1 16218
scalar FogSequentialForward.fog[25].dispatcher droppedJobsSLA_class_1 2
scalar FogSequentialForward.fog[25].server[0] rho 1
scalar FogSequentialForward.fog[25].server[0] congestionRatio 0
scalar FogSequentialForward.fog[25].server[0] totalJobs 16218
scalar FogSequentialForward.fog[25].server[0] droppedJobsQueue 2388
scalar FogSequentialForward.fog[25].server[0] droppedJobsTimout 0
scalar FogSequentialForward.fog[25].server[0] droppedJobsSLA 10464
scalar FogSequentialForward.fog[25].server[0] droppedJobsTotal 12852
scalar FogSequentialForward.fog[26].dispatcher localJobs 16194
scalar FogSequentialForward.fog[26].dispatcher internalJobs 16271
scalar FogSequentialForward.fog[26].dispatcher externalJobs 1747606
scalar FogSequentialForward.fog[26].dispatcher remoteJobs 1747679
scalar FogSequentialForward.fog[26].dispatcher probeQueries 0
scalar FogSequentialForward.fog[26].dispatcher probeAnswers 0
scalar FogSequentialForward.fog[26].dispatcher droppedJobsSLA 4
scalar FogSequentialForward.fog[26].dispatcher jobs_class_1 1763877
scalar FogSequentialForward.fog[26].dispatcher remoteJobs_class_1 1747679
scalar FogSequentialForward.fog[26].dispatcher localJobs_class_1 16194
scalar FogSequentialForward.fog[26].dispatcher droppedJobsSLA_class_1 4
scalar FogSequentialForward.fog[26].server[0] rho 1
scalar FogSequentialForward.fog[26].server[0] congestionRatio 0
scalar FogSequentialForward.fog[26].server[0] totalJobs 16194
scalar FogSequentialForward.fog[26].server[0] droppedJobsQueue 2382
scalar FogSequentialForward.fog[26].server[0] droppedJobsTimout 0
scalar FogSequentialForward.fog[26].server[0] droppedJobsSLA 10468
scalar FogSequentialForward.fog[26].server[0] droppedJobsTotal 12850
scalar FogSequentialForward.fog[27].dispatcher localJobs 16187
scalar FogSequentialForward.fog[27].dispatcher internalJobs 16391
scalar FogSequentialForward.fog[27].dispatcher externalJobs 1749040
scalar FogSequentialForward.fog[27].dispatcher remoteJobs 1749243
scalar FogSequentialForward.fog[27].dispatcher probeQueries 0
scalar FogSequentialForward.fog[27].dispatcher probeAnswers 0
scalar FogSequentialForward.fog[27].dispatcher droppedJobsSLA 1
scalar FogSequentialForward.fog[27].dispatcher jobs_class_1 1765431
scalar FogSequentialForward.fog[27].dispatcher remoteJobs_class_1 1749243
scalar FogSequentialForward.fog[27].dispatcher localJobs_class_1 16187
scalar FogSequentialForward.fog[27].dispatcher droppedJobsSLA_class_1 1
scalar FogSequentialForward.fog[27].server[0] rho 1
scalar FogSequentialForward.fog[27].server[0] congestionRatio 0
scalar FogSequentialForward.fog[27].server[0] totalJobs 16187
scalar FogSequentialForward.fog[27].server[0] droppedJobsQueue 2376
scalar FogSequentialForward.fog[27].server[0] droppedJobsTimout 0
scalar FogSequentialForward.fog[27].server[0] droppedJobsSLA 10548
scalar FogSequentialForward.fog[27].server[0] droppedJobsTotal 12924
scalar FogSequentialForward.fog[28].dispatcher localJobs 16183
scalar FogSequentialForward.fog[28].dispatcher internalJobs 16444
scalar FogSequentialForward.fog[28].dispatcher externalJobs 1748401
scalar FogSequentialForward.fog[28].dispatcher remoteJobs 1748661
scalar FogSequentialForward.fog[28].dispatcher probeQueries 0
scalar FogSequentialForward.fog[28].dispatcher probeAnswers 0
scalar FogSequentialForward.fog[28].dispatcher droppedJobsSLA 1
scalar FogSequentialForward.fog[28].dispatcher jobs_class_1 1764845
scalar FogSequentialForward.fog[28].dispatcher remoteJobs_class_1 1748661
scalar FogSequentialForward.fog[28].dispatcher localJobs_class_1 16183
scalar FogSequentialForward.fog[28].dispatcher droppedJobsSLA_class_1 1
scalar FogSequentialForward.fog[28].server[0] rho 1
scalar FogSequentialForward.fog[28].server[0] congestionRatio 0
scalar FogSequentialForward.fog[28].server[0] totalJobs 16183
scalar FogSequentialForward.fog[28].server[0] droppedJobsQueue 2368
scalar FogSequentialForward.fog[28].server[0] droppedJobsTimout 0
scalar FogSequentialForward.fog[28].server[0] droppedJobsSLA 10521
scalar FogSequentialForward.fog[28].server[0] droppedJobsTotal 12889
scalar FogSequentialForward.fog[29].dispatcher localJobs 16198
scalar FogSequentialForward.fog[29].dispatcher internalJobs 15969
scalar FogSequentialForward.fog[29].dispatcher externalJobs 1748985
scalar FogSequentialForward.fog[29].dispatcher remoteJobs 1748752
scalar FogSequentialForward.fog[29].dispatcher probeQueries 0
scalar FogSequentialForward.fog[29].dispatcher probeAnswers 0
scalar FogSequentialForward.fog[29].dispatcher droppedJobsSLA 4
scalar FogSequentialForward.fog[29].dispatcher jobs_class_1 1764954
scalar FogSequentialForward.fog[29].dispatcher remoteJobs_class_1 1748752
scalar FogSequentialForward.fog[29].dispatcher localJobs_class_1 16198
scalar FogSequentialForward.fog[29].dispatcher droppedJobsSLA_class_1 4
scalar FogSequentialForward.fog[29].server[0] rho 1
scalar FogSequentialForward.fog[29].server[0] congestionRatio 0
scalar FogSequentialForward.fog[29].server[0] totalJobs 16198
scalar FogSequentialForward.fog[29].server[0] droppedJobsQueue 2380
scalar FogSequentialForward.fog[29].server[0] droppedJobsTimout 0
scalar FogSequentialForward.fog[29].server[0] droppedJobsSLA 10513
scalar FogSequentialForward.fog[29].server[0] droppedJobsTotal 12893
scalar FogSequentialForward.fog[30].dispatcher localJobs 16205
scalar FogSequentialForward.fog[30].dispatcher internalJobs 16039
scalar FogSequentialForward.fog[30].dispatcher externalJobs 1750843
scalar FogSequentialForward.fog[30].dispatcher remoteJobs 1750672
scalar FogSequentialForward.fog[30].dispatcher probeQueries 0
scalar FogSequentialForward.fog[30].dispatcher probeAnswers 0
scalar FogSequentialForward.fog[30].dispatcher droppedJobsSLA 5
scalar FogSequentialForward.fog[30].dispatcher jobs_class_1 1766882
scalar FogSequentialForward.fog[30].dispatcher remoteJobs_class_1 1750672
scalar FogSequentialForward.fog[30].dispatcher localJobs_class_1 16205
scalar FogSequentialForward.fog[30].dispatcher droppedJobsSLA_class_1 5
scalar FogSequentialForward.fog[30].server[0] rho 1
scalar FogSequentialForward.fog[30].server[0] congestionRatio 0
scalar FogSequentialForward.fog[30].server[0] totalJobs 16205
scalar FogSequentialForward.fog[30].server[0] droppedJobsQueue 2380
scalar FogSequentialForward.fog[30].server[0] droppedJobsTimout 0
scalar FogSequentialForward.fog[30].server[0] droppedJobsSLA 10510
scalar FogSequentialForward.fog[30].server[0] droppedJobsTotal 12890
scalar FogSequentialForward.fog[31].dispatcher localJobs 16205
scalar FogSequentialForward.fog[31].dispatcher internalJobs 16407
scalar FogSequentialForward.fog[31].dispatcher externalJobs 1747408
scalar FogSequentialForward.fog[31].dispatcher remoteJobs 1747607
scalar FogSequentialForward.fog[31].dispatcher probeQueries 0
scalar FogSequentialForward.fog[31].dispatcher probeAnswers 0
scalar FogSequentialForward.fog[31].dispatcher droppedJobsSLA 3
scalar FogSequentialForward.fog[31].dispatcher jobs_class_1 1763815
scalar FogSequentialForward.fog[31].dispatcher remoteJobs_class_1 1747607
scalar FogSequentialForward.fog[31].dispatcher localJobs_class_1 16205
scalar FogSequentialForward.fog[31].dispatcher droppedJobsSLA_class_1 3
scalar FogSequentialForward.fog[31].server[0] rho 1
scalar FogSequentialForward.fog[31].server[0] congestionRatio 0
scalar FogSequentialForward.fog[31].server[0] totalJobs 16205
scalar FogSequentialForward.fog[31].server[0] droppedJobsQueue 2383
scalar FogSequentialForward.fog[31].server[0] droppedJobsTimout 0
scalar FogSequentialForward.fog[31].server[0] droppedJobsSLA 10582
scalar FogSequentialForward.fog[31].server[0] droppedJobsTotal 12965
scalar FogSequentialForward.fog[32].dispatcher localJobs 16229
scalar FogSequentialForward.fog[32].dispatcher internalJobs 16125
scalar FogSequentialForward.fog[32].dispatcher externalJobs 1748962
scalar FogSequentialForward.fog[32].dispatcher remoteJobs 1748855
scalar FogSequentialForward.fog[32].dispatcher probeQueries 0
scalar FogSequentialForward.fog[32].dispatcher probeAnswers 0
scalar FogSequentialForward.fog[32].dispatcher droppedJobsSLA 3
scalar FogSequentialForward.fog[32].dispatcher jobs_class_1 1765087
scalar FogSequentialForward.fog[32].dispatcher remoteJobs_class_1 1748855
scalar FogSequentialForward.fog[32].dispatcher localJobs_class_1 16229
scalar FogSequentialForward.fog[32].dispatcher droppedJobsSLA_class_1 3
scalar FogSequentialForward.fog[32].server[0] rho 1
scalar FogSequentialForward.fog[32].server[0] congestionRatio 0
scalar FogSequentialForward.fog[32].server[0] totalJobs 16229
scalar FogSequentialForward.fog[32].server[0] droppedJobsQueue 2390
scalar FogSequentialForward.fog[32].server[0] droppedJobsTimout 0
scalar FogSequentialForward.fog[32].server[0] droppedJobsSLA 10621
scalar FogSequentialForward.fog[32].server[0] droppedJobsTotal 13011
scalar FogSequentialForward.fog[33].dispatcher localJobs 16210
scalar FogSequentialForward.fog[33].dispatcher internalJobs 16086
scalar FogSequentialForward.fog[33].dispatcher externalJobs 1749762
scalar FogSequentialForward.fog[33].dispatcher remoteJobs 1749637
scalar FogSequentialForward.fog[33].dispatcher probeQueries 0
scalar FogSequentialForward.fog[33].dispatcher probeAnswers 0
scalar FogSequentialForward.fog[33].dispatcher droppedJobsSLA 1
scalar FogSequentialForward.fog[33].dispatcher jobs_class_1 1765848
scalar FogSequentialForward.fog[33].dispatcher remoteJobs_class_1 1749637
scalar FogSequentialForward.fog[33].dispatcher localJobs_class_1 16210
scalar FogSequentialForward.fog[33].dispatcher droppedJobsSLA_class_1 1
scalar FogSequentialForward.fog[33].server[0] rho 1
scalar FogSequentialForward.fog[33].server[0] congestionRatio 0
scalar FogSequentialForward.fog[33].server[0] totalJobs 16210
scalar FogSequentialForward.fog[33].server[0] droppedJobsQueue 2395
scalar FogSequentialForward.fog[33].server[0] droppedJobsTimout 0
scalar FogSequentialForward.fog[33].server[0] droppedJobsSLA 10539
scalar FogSequentialForward.fog[33].server[0] droppedJobsTotal 12934
scalar FogSequentialForward.fog[34].dispatcher localJobs 16190
scalar FogSequentialForward.fog[34].dispatcher internalJobs 16324
scalar FogSequentialForward.fog[34].dispatcher externalJobs 1747417
scalar FogSequentialForward.fog[34].dispatcher remoteJobs 1747550
scalar FogSequentialForward.fog[34].dispatcher probeQueries 0
scalar FogSequentialForward.fog[34].dispatcher probeAnswers 0
scalar FogSequentialForward.fog[34].dispatcher droppedJobsSLA 1
scalar FogSequentialForward.fog[34].dispatcher jobs_class_1 1763741
scalar FogSequentialForward.fog[34].dispatcher remoteJobs_class_1 1747550
scalar FogSequentialForward.fog[34].dispatcher localJobs_class_1 16190
scalar FogSequentialForward.fog[34].dispatcher droppedJobsSLA_class_1 1
scalar FogSequentialForward.fog[34].server[0] rho 1
scalar FogSequentialForward.fog[34].server[0] congestionRatio 0
scalar FogSequentialForward.fog[34].server[0] totalJobs 16190
scalar FogSequentialForward.fog[34].server[0] droppedJobsQueue 2385
scalar FogSequentialForward.fog[34].server[0] droppedJobsTimout 0
scalar FogSequentialForward.fog[34].server[0] droppedJobsSLA 10552
scalar FogSequentialForward.fog[34].server[0] droppedJobsTotal 12937
scalar FogSequentialForward.fog[35].dispatcher localJobs 16218
scalar FogSequentialForward.fog[35].dispatcher internalJobs 16098
scalar FogSequentialForward.fog[35].dispatcher externalJobs 1747058
scalar FogSequentialForward.fog[35].dispatcher remoteJobs 1746937
scalar FogSequentialForward.fog[35].dispatcher probeQueries 0
scalar FogSequentialForward.fog[35].dispatcher probeAnswers 0
scalar FogSequentialForward.fog[35].dispatcher droppedJobsSLA 1
scalar FogSequentialForward.fog[35].dispatcher jobs_class_1 1763156
scalar FogSequentialForward.fog[35].dispatcher remoteJobs_class_1 1746937
scalar FogSequentialForward.fog[35].dispatcher localJobs_class_1 16218
scalar FogSequentialForward.fog[35].dispatcher droppedJobsSLA_class_1 1
scalar FogSequentialForward.fog[35].server[0] rho 1
scalar FogSequentialForward.fog[35].server[0] congestionRatio 0
scalar FogSequentialForward.fog[35].server[0] totalJobs 16218
scalar FogSequentialForward.fog[35].server[0] droppedJobsQueue 2390
scalar FogSequentialForward.fog[35].server[0] droppedJobsTimout 0
scalar FogSequentialForward.fog[35].server[0] droppedJobsSLA 10495
scalar FogSequentialForward.fog[35].server[0] droppedJobsTotal 12885
scalar FogSequentialForward.fog[36].dispatcher localJobs 16240
scalar FogSequentialForward.fog[36].dispatcher internalJobs 16175
scalar FogSequentialForward.fog[36].dispatcher externalJobs 1748857
scalar FogSequentialForward.fog[36].dispatcher remoteJobs 1748791
scalar FogSequentialForward.fog[36].dispatcher probeQueries 0
scalar FogSequentialForward.fog[36].dispatcher probeAnswers 0
scalar FogSequentialForward.fog[36].dispatcher droppedJobsSLA 1
scalar FogSequentialForward.fog[36].dispatcher jobs_class_1 1765032
scalar FogSequentialForward.fog[36].dispatcher remoteJobs_class_1 1748791
scalar FogSequentialForward.fog[36].dispatcher localJobs_class_1 16240
scalar FogSequentialForward.fog[36].dispatcher droppedJobsSLA_class_1 1
scalar FogSequentialForward.fog[36].server[0] rho 1
scalar FogSequentialForward.fog[36].server[0] congestionRatio 0
scalar FogSequentialForward.fog[36].server[0] totalJobs 16240
scalar FogSequentialForward.fog[36].server[0] droppedJobsQueue 2394
scalar FogSequentialForward.fog[36].server[0] droppedJobsTimout 0
scalar FogSequentialForward.fog[36].server[0] droppedJobsSLA 10521
scalar FogSequentialForward.fog[36].server[0] droppedJobsTotal 12915
scalar FogSequentialForward.fog[37].dispatcher localJobs 16183
scalar FogSequentialForward.fog[37].dispatcher internalJobs 16193
scalar FogSequentialForward.fog[37].dispatcher externalJobs 1748959
scalar FogSequentialForward.fog[37].dispatcher remoteJobs 1748965
scalar FogSequentialForward.fog[37].dispatcher probeQueries 0
scalar FogSequentialForward.fog[37].dispatcher probeAnswers 0
scalar FogSequentialForward.fog[37].dispatcher droppedJobsSLA 4
scalar FogSequentialForward.fog[37].dispatcher jobs_class_1 1765152
scalar FogSequentialForward.fog[37].dispatcher remoteJobs_class_1 1748965
scalar FogSequentialForward.fog[37].dispatcher localJobs_class_1 16183
scalar FogSequentialForward.fog[37].dispatcher droppedJobsSLA_class_1 4
scalar FogSequentialForward.fog[37].server[0] rho 1
scalar FogSequentialForward.fog[37].server[0] congestionRatio 0
scalar FogSequentialForward.fog[37].server[0] totalJobs 16183
scalar FogSequentialForward.fog[37].server[0] droppedJobsQueue 2375
scalar FogSequentialForward.fog[37].server[0] droppedJobsTimout 0
scalar FogSequentialForward.fog[37].server[0] droppedJobsSLA 10519
scalar FogSequentialForward.fog[37].server[0] droppedJobsTotal 12894
scalar FogSequentialForward.fog[38].dispatcher localJobs 16225
scalar FogSequentialForward.fog[38].dispatcher internalJobs 16340
scalar FogSequentialForward.fog[38].dispatcher externalJobs 1748546
scalar FogSequentialForward.fog[38].dispatcher remoteJobs 1748661
scalar FogSequentialForward.fog[38].dispatcher probeQueries 0
scalar FogSequentialForward.fog[38].dispatcher probeAnswers 0
scalar FogSequentialForward.fog[38].dispatcher droppedJobsSLA 0
scalar FogSequentialForward.fog[38].dispatcher jobs_class_1 1764886
scalar FogSequentialForward.fog[38].dispatcher remoteJobs_class_1 1748661
scalar FogSequentialForward.fog[38].dispatcher localJobs_class_1 16225
scalar FogSequentialForward.fog[38].server[0] rho 1
scalar FogSequentialForward.fog[38].server[0] congestionRatio 0
scalar FogSequentialForward.fog[38].server[0] totalJobs 16225
scalar FogSequentialForward.fog[38].server[0] droppedJobsQueue 2377
scalar FogSequentialForward.fog[38].server[0] droppedJobsTimout 0
scalar FogSequentialForward.fog[38].server[0] droppedJobsSLA 10556
scalar FogSequentialForward.fog[38].server[0] droppedJobsTotal 12933
scalar FogSequentialForward.fog[39].dispatcher localJobs 16238
scalar FogSequentialForward.fog[39].dispatcher internalJobs 16132
scalar FogSequentialForward.fog[39].dispatcher externalJobs 1748157
scalar FogSequentialForward.fog[39].dispatcher remoteJobs 1748049
scalar FogSequentialForward.fog[39].dispatcher probeQueries 0
scalar FogSequentialForward.fog[39].dispatcher probeAnswers 0
scalar FogSequentialForward.fog[39].dispatcher droppedJobsSLA 2
scalar FogSequentialForward.fog[39].dispatcher jobs_class_1 1764289
scalar FogSequentialForward.fog[39].dispatcher remoteJobs_class_1 1748049
scalar FogSequentialForward.fog[39].dispatcher localJobs_class_1 16238
scalar FogSequentialForward.fog[39].dispatcher droppedJobsSLA_class_1 2
scalar FogSequentialForward.fog[39].server[0] rho 1
scalar FogSequentialForward.fog[39].server[0] congestionRatio 0
scalar FogSequentialForward.fog[39].server[0] totalJobs 16238
scalar FogSequentialForward.fog[39].server[0] droppedJobsQueue 2405
scalar FogSequentialForward.fog[39].server[0] droppedJobsTimout 0
scalar FogSequentialForward.fog[39].server[0] droppedJobsSLA 10606
scalar FogSequentialForward.fog[39].server[0] droppedJobsTotal 13011
scalar FogSequentialForward.fog[40].dispatcher localJobs 16206
scalar FogSequentialForward.fog[40].dispatcher internalJobs 16236
scalar FogSequentialForward.fog[40].dispatcher externalJobs 1748261
scalar FogSequentialForward.fog[40].dispatcher remoteJobs 1748285
scalar FogSequentialForward.fog[40].dispatcher probeQueries 0
scalar FogSequentialForward.fog[40].dispatcher probeAnswers 0
scalar FogSequentialForward.fog[40].dispatcher droppedJobsSLA 6
scalar FogSequentialForward.fog[40].dispatcher jobs_class_1 1764497
scalar FogSequentialForward.fog[40].dispatcher remoteJobs_class_1 1748285
scalar FogSequentialForward.fog[40].dispatcher localJobs_class_1 16206
scalar FogSequentialForward.fog[40].dispatcher droppedJobsSLA_class_1 6
scalar FogSequentialForward.fog[40].server[0] rho 1
scalar FogSequentialForward.fog[40].server[0] congestionRatio 0
scalar FogSequentialForward.fog[40].server[0] totalJobs 16206
scalar FogSequentialForward.fog[40].server[0] droppedJobsQueue 2381
scalar FogSequentialForward.fog[40].server[0] droppedJobsTimout 0
scalar FogSequentialForward.fog[40].server[0] droppedJobsSLA 10527
scalar FogSequentialForward.fog[40].server[0] droppedJobsTotal 12908
scalar FogSequentialForward.fog[41].dispatcher localJobs 16229
scalar FogSequentialForward.fog[41].dispatcher internalJobs 16389
scalar FogSequentialForward.fog[41].dispatcher externalJobs 1748790
scalar FogSequentialForward.fog[41].dispatcher remoteJobs 1748944
scalar FogSequentialForward.fog[41].dispatcher probeQueries 0
scalar FogSequentialForward.fog[41].dispatcher probeAnswers 0
scalar FogSequentialForward.fog[41].dispatcher droppedJobsSLA 6
scalar FogSequentialForward.fog[41].dispatcher jobs_class_1 1765179
scalar FogSequentialForward.fog[41].dispatcher remoteJobs_class_1 1748944
scalar FogSequentialForward.fog[41].dispatcher localJobs_class_1 16229
scalar FogSequentialForward.fog[41].dispatcher droppedJobsSLA_class_1 6
scalar FogSequentialForward.fog[41].server[0] rho 1
scalar FogSequentialForward.fog[41].server[0] congestionRatio 0
scalar FogSequentialForward.fog[41].server[0] totalJobs 16229
scalar FogSequentialForward.fog[41].server[0] droppedJobsQueue 2387
scalar FogSequentialForward.fog[41].server[0] droppedJobsTimout 0
scalar FogSequentialForward.fog[41].server[0] droppedJobsSLA 10575
scalar FogSequentialForward.fog[41].server[0] droppedJobsTotal 12962
scalar FogSequentialForward.fog[42].dispatcher localJobs 16182
scalar FogSequentialForward.fog[42].dispatcher internalJobs 16200
scalar FogSequentialForward.fog[42].dispatcher externalJobs 1749306
scalar FogSequentialForward.fog[42].dispatcher remoteJobs 1749322
scalar FogSequentialForward.fog[42].dispatcher probeQueries 0
scalar FogSequentialForward.fog[42].dispatcher probeAnswers 0
scalar FogSequentialForward.fog[42].dispatcher droppedJobsSLA 2
scalar FogSequentialForward.fog[42].dispatcher jobs_class_1 1765506
scalar FogSequentialForward.fog[42].dispatcher remoteJobs_class_1 1749322
scalar FogSequentialForward.fog[42].dispatcher localJobs_class_1 16182
scalar FogSequentialForward.fog[42].dispatcher droppedJobsSLA_class_1 2
scalar FogSequentialForward.fog[42].server[0] rho 1
scalar FogSequentialForward.fog[42].server[0] congestionRatio 0
scalar FogSequentialForward.fog[42].server[0] totalJobs 16182
scalar FogSequentialForward.fog[42].server[0] droppedJobsQueue 2375
scalar FogSequentialForward.fog[42].server[0] droppedJobsTimout 0
scalar FogSequentialForward.fog[42].server[0] droppedJobsSLA 10509
scalar FogSequentialForward.fog[42].server[0] droppedJobsTotal 12884
scalar FogSequentialForward.fog[43].dispatcher localJobs 16223
scalar FogSequentialForward.fog[43].dispatcher internalJobs 16108
scalar FogSequentialForward.fog[43].dispatcher externalJobs 1748838
scalar FogSequentialForward.fog[43].dispatcher remoteJobs 1748721
scalar FogSequentialForward.fog[43].dispatcher probeQueries 0
scalar FogSequentialForward.fog[43].dispatcher probeAnswers 0
scalar FogSequentialForward.fog[43].dispatcher droppedJobsSLA 2
scalar FogSequentialForward.fog[43].dispatcher jobs_class_1 1764946
scalar FogSequentialForward.fog[43].dispatcher remoteJobs_class_1 1748721
scalar FogSequentialForward.fog[43].dispatcher localJobs_class_1 16223
scalar FogSequentialForward.fog[43].dispatcher droppedJobsSLA_class_1 2
scalar FogSequentialForward.fog[43].server[0] rho 1
scalar FogSequentialForward.fog[43].server[0] congestionRatio 0
scalar FogSequentialForward.fog[43].server[0] totalJobs 16223
scalar FogSequentialForward.fog[43].server[0] droppedJobsQueue 2380
scalar FogSequentialForward.fog[43].server[0] droppedJobsTimout 0
scalar FogSequentialForward.fog[43].server[0] droppedJobsSLA 10558
scalar FogSequentialForward.fog[43].server[0] droppedJobsTotal 12938
scalar FogSequentialForward.fog[44].dispatcher localJobs 16186
scalar FogSequentialForward.fog[44].dispatcher internalJobs 16517
scalar FogSequentialForward.fog[44].dispatcher externalJobs 1751207
scalar FogSequentialForward.fog[44].dispatcher remoteJobs 1751534
scalar FogSequentialForward.fog[44].dispatcher probeQueries 0
scalar FogSequentialForward.fog[44].dispatcher probeAnswers 0
scalar FogSequentialForward.fog[44].dispatcher droppedJobsSLA 4
scalar FogSequentialForward.fog[44].dispatcher jobs_class_1 1767724
scalar FogSequentialForward.fog[44].dispatcher remoteJobs_class_1 1751534
scalar FogSequentialForward.fog[44].dispatcher localJobs_class_1 16186
scalar FogSequentialForward.fog[44].dispatcher droppedJobsSLA_class_1 4
scalar FogSequentialForward.fog[44].server[0] rho 1
scalar FogSequentialForward.fog[44].server[0] congestionRatio 0
scalar FogSequentialForward.fog[44].server[0] totalJobs 16186
scalar FogSequentialForward.fog[44].server[0] droppedJobsQueue 2372
scalar FogSequentialForward.fog[44].server[0] droppedJobsTimout 0
scalar FogSequentialForward.fog[44].server[0] droppedJobsSLA 10485
scalar FogSequentialForward.fog[44].server[0] droppedJobsTotal 12857
scalar FogSequentialForward.fog[45].dispatcher localJobs 16195
scalar FogSequentialForward.fog[45].dispatcher internalJobs 16182
scalar FogSequentialForward.fog[45].dispatcher externalJobs 1748233
scalar FogSequentialForward.fog[45].dispatcher remoteJobs 1748220
scalar FogSequentialForward.fog[45].dispatcher probeQueries 0
scalar FogSequentialForward.fog[45].dispatcher probeAnswers 0
scalar FogSequentialForward.fog[45].dispatcher droppedJobsSLA 0
scalar FogSequentialForward.fog[45].dispatcher jobs_class_1 1764415
scalar FogSequentialForward.fog[45].dispatcher remoteJobs_class_1 1748220
scalar FogSequentialForward.fog[45].dispatcher localJobs_class_1 16195
scalar FogSequentialForward.fog[45].server[0] rho 1
scalar FogSequentialForward.fog[45].server[0] congestionRatio 0
scalar FogSequentialForward.fog[45].server[0] totalJobs 16195
scalar FogSequentialForward.fog[45].server[0] droppedJobsQueue 2375
scalar FogSequentialForward.fog[45].server[0] droppedJobsTimout 0
scalar FogSequentialForward.fog[45].server[0] droppedJobsSLA 10518
scalar FogSequentialForward.fog[45].server[0] droppedJobsTotal 12893
scalar FogSequentialForward.fog[46].dispatcher localJobs 16219
scalar FogSequentialForward.fog[46].dispatcher internalJobs 15961
scalar FogSequentialForward.fog[46].dispatcher externalJobs 1747973
scalar FogSequentialForward.fog[46].dispatcher remoteJobs 1747713
scalar FogSequentialForward.fog[46].dispatcher probeQueries 0
scalar FogSequentialForward.fog[46].dispatcher probeAnswers 0
scalar FogSequentialForward.fog[46].dispatcher droppedJobsSLA 2
scalar FogSequentialForward.fog[46].dispatcher jobs_class_1 1763934
scalar FogSequentialForward.fog[46].dispatcher remoteJobs_class_1 1747713
scalar FogSequentialForward.fog[46].dispatcher localJobs_class_1 16219
scalar FogSequentialForward.fog[46].dispatcher droppedJobsSLA_class_1 2
scalar FogSequentialForward.fog[46].server[0] rho 1
scalar FogSequentialForward.fog[46].server[0] congestionRatio 0
scalar FogSequentialForward.fog[46].server[0] totalJobs 16219
scalar FogSequentialForward.fog[46].server[0] droppedJobsQueue 2409
scalar FogSequentialForward.fog[46].server[0] droppedJobsTimout 0
scalar FogSequentialForward.fog[46].server[0] droppedJobsSLA 10566
scalar FogSequentialForward.fog[46].server[0] droppedJobsTotal 12975
scalar FogSequentialForward.fog[47].dispatcher localJobs 16198
scalar FogSequentialForward.fog[47].dispatcher internalJobs 16405
scalar FogSequentialForward.fog[47].dispatcher externalJobs 1749227
scalar FogSequentialForward.fog[47].dispatcher remoteJobs 1749430
scalar FogSequentialForward.fog[47].dispatcher probeQueries 0
scalar FogSequentialForward.fog[47].dispatcher probeAnswers 0
scalar FogSequentialForward.fog[47].dispatcher droppedJobsSLA 4
scalar FogSequentialForward.fog[47].dispatcher jobs_class_1 1765632
scalar FogSequentialForward.fog[47].dispatcher remoteJobs_class_1 1749430
scalar FogSequentialForward.fog[47].dispatcher localJobs_class_1 16198
scalar FogSequentialForward.fog[47].dispatcher droppedJobsSLA_class_1 4
scalar FogSequentialForward.fog[47].server[0] rho 1
scalar FogSequentialForward.fog[47].server[0] congestionRatio 0
scalar FogSequentialForward.fog[47].server[0] totalJobs 16198
scalar FogSequentialForward.fog[47].server[0] droppedJobsQueue 2384
scalar FogSequentialForward.fog[47].server[0] droppedJobsTimout 0
scalar FogSequentialForward.fog[47].server[0] droppedJobsSLA 10536
scalar FogSequentialForward.fog[47].server[0] droppedJobsTotal 12920
scalar FogSequentialForward.fog[48].dispatcher localJobs 16241
scalar FogSequentialForward.fog[48].dispatcher internalJobs 16391
scalar FogSequentialForward.fog[48].dispatcher externalJobs 1749331
scalar FogSequentialForward.fog[48].dispatcher remoteJobs 1749480
scalar FogSequentialForward.fog[48].dispatcher probeQueries 0
scalar FogSequentialForward.fog[48].dispatcher probeAnswers 0
scalar FogSequentialForward.fog[48].dispatcher droppedJobsSLA 1
scalar FogSequentialForward.fog[48].dispatcher jobs_class_1 1765722
scalar FogSequentialForward.fog[48].dispatcher remoteJobs_class_1 1749480
scalar FogSequentialForward.fog[48].dispatcher localJobs_class_1 16241
scalar FogSequentialForward.fog[48].dispatcher droppedJobsSLA_class_1 1
scalar FogSequentialForward.fog[48].server[0] rho 1
scalar FogSequentialForward.fog[48].server[0] congestionRatio 0
scalar FogSequentialForward.fog[48].server[0] totalJobs 16241
scalar FogSequentialForward.fog[48].server[0] droppedJobsQueue 2376
scalar FogSequentialForward.fog[48].server[0] droppedJobsTimout 0
scalar FogSequentialForward.fog[48].server[0] droppedJobsSLA 10535
scalar FogSequentialForward.fog[48].server[0] droppedJobsTotal 12911
scalar FogSequentialForward.fog[49].dispatcher localJobs 16215
scalar FogSequentialForward.fog[49].dispatcher internalJobs 16297
scalar FogSequentialForward.fog[49].dispatcher externalJobs 1747771
scalar FogSequentialForward.fog[49].dispatcher remoteJobs 1747852
scalar FogSequentialForward.fog[49].dispatcher probeQueries 0
scalar FogSequentialForward.fog[49].dispatcher probeAnswers 0
scalar FogSequentialForward.fog[49].dispatcher droppedJobsSLA 1
scalar FogSequentialForward.fog[49].dispatcher jobs_class_1 1764068
scalar FogSequentialForward.fog[49].dispatcher remoteJobs_class_1 1747852
scalar FogSequentialForward.fog[49].dispatcher localJobs_class_1 16215
scalar FogSequentialForward.fog[49].dispatcher droppedJobsSLA_class_1 1
scalar FogSequentialForward.fog[49].server[0] rho 1
scalar FogSequentialForward.fog[49].server[0] congestionRatio 0
scalar FogSequentialForward.fog[49].server[0] totalJobs 16215
scalar FogSequentialForward.fog[49].server[0] droppedJobsQueue 2387
scalar FogSequentialForward.fog[49].server[0] droppedJobsTimout 0
scalar FogSequentialForward.fog[49].server[0] droppedJobsSLA 10510
scalar FogSequentialForward.fog[49].server[0] droppedJobsTotal 12897
scalar FogSequentialForward.fog[50].dispatcher localJobs 16221
scalar FogSequentialForward.fog[50].dispatcher internalJobs 16215
scalar FogSequentialForward.fog[50].dispatcher externalJobs 1748861
scalar FogSequentialForward.fog[50].dispatcher remoteJobs 1748851
scalar FogSequentialForward.fog[50].dispatcher probeQueries 0
scalar FogSequentialForward.fog[50].dispatcher probeAnswers 0
scalar FogSequentialForward.fog[50].dispatcher droppedJobsSLA 4
scalar FogSequentialForward.fog[50].dispatcher jobs_class_1 1765076
scalar FogSequentialForward.fog[50].dispatcher remoteJobs_class_1 1748851
scalar FogSequentialForward.fog[50].dispatcher localJobs_class_1 16221
scalar FogSequentialForward.fog[50].dispatcher droppedJobsSLA_class_1 4
scalar FogSequentialForward.fog[50].server[0] rho 1
scalar FogSequentialForward.fog[50].server[0] congestionRatio 0
scalar FogSequentialForward.fog[50].server[0] totalJobs 16221
scalar FogSequentialForward.fog[50].server[0] droppedJobsQueue 2371
scalar FogSequentialForward.fog[50].server[0] droppedJobsTimout 0
scalar FogSequentialForward.fog[50].server[0] droppedJobsSLA 10484
scalar FogSequentialForward.fog[50].server[0] droppedJobsTotal 12855
scalar FogSequentialForward.fog[51].dispatcher localJobs 16188
scalar FogSequentialForward.fog[51].dispatcher internalJobs 15923
scalar FogSequentialForward.fog[51].dispatcher externalJobs 1751133
scalar FogSequentialForward.fog[51].dispatcher remoteJobs 1750865
scalar FogSequentialForward.fog[51].dispatcher probeQueries 0
scalar FogSequentialForward.fog[51].dispatcher probeAnswers 0
scalar FogSequentialForward.fog[51].dispatcher droppedJobsSLA 3
scalar FogSequentialForward.fog[51].dispatcher jobs_class_1 1767056
scalar FogSequentialForward.fog[51].dispatcher remoteJobs_class_1 1750865
scalar FogSequentialForward.fog[51].dispatcher localJobs_class_1 16188
scalar FogSequentialForward.fog[51].dispatcher droppedJobsSLA_class_1 3
scalar FogSequentialForward.fog[51].server[0] rho 1
scalar FogSequentialForward.fog[51].server[0] congestionRatio 0
scalar FogSequentialForward.fog[51].server[0] totalJobs 16188
scalar FogSequentialForward.fog[51].server[0] droppedJobsQueue 2376
scalar FogSequentialForward.fog[51].server[0] droppedJobsTimout 0
scalar FogSequentialForward.fog[51].server[0] droppedJobsSLA 10524
scalar FogSequentialForward.fog[51].server[0] droppedJobsTotal 12900
scalar FogSequentialForward.fog[52].dispatcher localJobs 16199
scalar FogSequentialForward.fog[52].dispatcher internalJobs 16125
scalar FogSequentialForward.fog[52].dispatcher externalJobs 1749155
scalar FogSequentialForward.fog[52].dispatcher remoteJobs 1749078
scalar FogSequentialForward.fog[52].dispatcher probeQueries 0
scalar FogSequentialForward.fog[52].dispatcher probeAnswers 0
scalar FogSequentialForward.fog[52].dispatcher droppedJobsSLA 3
scalar FogSequentialForward.fog[52].dispatcher jobs_class_1 1765280
scalar FogSequentialForward.fog[52].dispatcher remoteJobs_class_1 1749078
scalar FogSequentialForward.fog[52].dispatcher localJobs_class_1 16199
scalar FogSequentialForward.fog[52].dispatcher droppedJobsSLA_class_1 3
scalar FogSequentialForward.fog[52].server[0] rho 1
scalar FogSequentialForward.fog[52].server[0] congestionRatio 0
scalar FogSequentialForward.fog[52].server[0] totalJobs 16199
scalar FogSequentialForward.fog[52].server[0] droppedJobsQueue 2388
scalar FogSequentialForward.fog[52].server[0] droppedJobsTimout 0
scalar FogSequentialForward.fog[52].server[0] droppedJobsSLA 10559
scalar FogSequentialForward.fog[52].server[0] droppedJobsTotal 12947
scalar FogSequentialForward.fog[53].dispatcher localJobs 16209
scalar FogSequentialForward.fog[53].dispatcher internalJobs 16372
scalar FogSequentialForward.fog[53].dispatcher externalJobs 1746853
scalar FogSequentialForward.fog[53].dispatcher remoteJobs 1747011
scalar FogSequentialForward.fog[53].dispatcher probeQueries 0
scalar FogSequentialForward.fog[53].dispatcher probeAnswers 0
scalar FogSequentialForward.fog[53].dispatcher droppedJobsSLA 5
scalar FogSequentialForward.fog[53].dispatcher jobs_class_1 1763225
scalar FogSequentialForward.fog[53].dispatcher remoteJobs_class_1 1747011
scalar FogSequentialForward.fog[53].dispatcher localJobs_class_1 16209
scalar FogSequentialForward.fog[53].dispatcher droppedJobsSLA_class_1 5
scalar FogSequentialForward.fog[53].server[0] rho 1
scalar FogSequentialForward.fog[53].server[0] congestionRatio 0
scalar FogSequentialForward.fog[53].server[0] totalJobs 16209
scalar FogSequentialForward.fog[53].server[0] droppedJobsQueue 2395
scalar FogSequentialForward.fog[53].server[0] droppedJobsTimout 0
scalar FogSequentialForward.fog[53].server[0] droppedJobsSLA 10553
scalar FogSequentialForward.fog[53].server[0] droppedJobsTotal 12948
scalar FogSequentialForward.fog[54].dispatcher localJobs 16197
scalar FogSequentialForward.fog[54].dispatcher internalJobs 16083
scalar FogSequentialForward.fog[54].dispatcher externalJobs 1747243
scalar FogSequentialForward.fog[54].dispatcher remoteJobs 1747126
scalar FogSequentialForward.fog[54].dispatcher probeQueries 0
scalar FogSequentialForward.fog[54].dispatcher probeAnswers 0
scalar FogSequentialForward.fog[54].dispatcher droppedJobsSLA 3
scalar FogSequentialForward.fog[54].dispatcher jobs_class_1 1763326
scalar FogSequentialForward.fog[54].dispatcher remoteJobs_class_1 1747126
scalar FogSequentialForward.fog[54].dispatcher localJobs_class_1 16197
scalar FogSequentialForward.fog[54].dispatcher droppedJobsSLA_class_1 3
scalar FogSequentialForward.fog[54].server[0] rho 1
scalar FogSequentialForward.fog[54].server[0] congestionRatio 0
scalar FogSequentialForward.fog[54].server[0] totalJobs 16197
scalar FogSequentialForward.fog[54].server[0] droppedJobsQueue 2386
scalar FogSequentialForward.fog[54].server[0] droppedJobsTimout 0
scalar FogSequentialForward.fog[54].server[0] droppedJobsSLA 10534
scalar FogSequentialForward.fog[54].server[0] droppedJobsTotal 12920
scalar FogSequentialForward.fog[55].dispatcher localJobs 16199
scalar FogSequentialForward.fog[55].dispatcher internalJobs 16197
scalar FogSequentialForward.fog[55].dispatcher externalJobs 1749779
scalar FogSequentialForward.fog[55].dispatcher remoteJobs 1749775
scalar FogSequentialForward.fog[55].dispatcher probeQueries 0
scalar FogSequentialForward.fog[55].dispatcher probeAnswers 0
scalar FogSequentialForward.fog[55].dispatcher droppedJobsSLA 2
scalar FogSequentialForward.fog[55].dispatcher jobs_class_1 1765976
scalar FogSequentialForward.fog[55].dispatcher remoteJobs_class_1 1749775
scalar FogSequentialForward.fog[55].dispatcher localJobs_class_1 16199
scalar FogSequentialForward.fog[55].dispatcher droppedJobsSLA_class_1 2
scalar FogSequentialForward.fog[55].server[0] rho 1
scalar FogSequentialForward.fog[55].server[0] congestionRatio 0
scalar FogSequentialForward.fog[55].server[0] totalJobs 16199
scalar FogSequentialForward.fog[55].server[0] droppedJobsQueue 2374
scalar FogSequentialForward.fog[55].server[0] droppedJobsTimout 0
scalar FogSequentialForward.fog[55].server[0] droppedJobsSLA 10511
scalar FogSequentialForward.fog[55].server[0] droppedJobsTotal 12885
scalar FogSequentialForward.fog[56].dispatcher localJobs 16161
scalar FogSequentialForward.fog[56].dispatcher internalJobs 16201
scalar FogSequentialForward.fog[56].dispatcher externalJobs 1749528
scalar FogSequentialForward.fog[56].dispatcher remoteJobs 1749568
scalar FogSequentialForward.fog[56].dispatcher probeQueries 0
scalar FogSequentialForward.fog[56].dispatcher probeAnswers 0
scalar FogSequentialForward.fog[56].dispatcher droppedJobsSLA 0
scalar FogSequentialForward.fog[56].dispatcher jobs_class_1 1765729
scalar FogSequentialForward.fog[56].dispatcher remoteJobs_class_1 1749568
scalar FogSequentialForward.fog[56].dispatcher localJobs_class_1 16161
scalar FogSequentialForward.fog[56].server[0] rho 1
scalar FogSequentialForward.fog[56].server[0] congestionRatio 0
scalar FogSequentialForward.fog[56].server[0] totalJobs 16161
scalar FogSequentialForward.fog[56].server[0] droppedJobsQueue 2372
scalar FogSequentialForward.fog[56].server[0] droppedJobsTimout 0
scalar FogSequentialForward.fog[56].server[0] droppedJobsSLA 10518
scalar FogSequentialForward.fog[56].server[0] droppedJobsTotal 12890
scalar FogSequentialForward.fog[57].dispatcher localJobs 16239
scalar FogSequentialForward.fog[57].dispatcher internalJobs 15978
scalar FogSequentialForward.fog[57].dispatcher externalJobs 1749295
scalar FogSequentialForward.fog[57].dispatcher remoteJobs 1749033
scalar FogSequentialForward.fog[57].dispatcher probeQueries 0
scalar FogSequentialForward.fog[57].dispatcher probeAnswers 0
scalar FogSequentialForward.fog[57].dispatcher droppedJobsSLA 1
scalar FogSequentialForward.fog[57].dispatcher jobs_class_1 1765273
scalar FogSequentialForward.fog[57].dispatcher remoteJobs_class_1 1749033
scalar FogSequentialForward.fog[57].dispatcher localJobs_class_1 16239
scalar FogSequentialForward.fog[57].dispatcher droppedJobsSLA_class_1 1
scalar FogSequentialForward.fog[57].server[0] rho 1
scalar FogSequentialForward.fog[57].server[0] congestionRatio 0
scalar FogSequentialForward.fog[57].server[0] totalJobs 16239
scalar FogSequentialForward.fog[57].server[0] droppedJobsQueue 2396
scalar FogSequentialForward.fog[57].server[0] droppedJobsTimout 0
scalar FogSequentialForward.fog[57].server[0] droppedJobsSLA 10545
scalar FogSequentialForward.fog[57].server[0] droppedJobsTotal 12941
scalar FogSequentialForward.fog[58].dispatcher localJobs 16200
scalar FogSequentialForward.fog[58].dispatcher internalJobs 16201
scalar FogSequentialForward.fog[58].dispatcher externalJobs 1749394
scalar FogSequentialForward.fog[58].dispatcher remoteJobs 1749391
scalar FogSequentialForward.fog[58].dispatcher probeQueries 0
scalar FogSequentialForward.fog[58].dispatcher probeAnswers 0
scalar FogSequentialForward.fog[58].dispatcher droppedJobsSLA 4
scalar FogSequentialForward.fog[58].dispatcher jobs_class_1 1765595
scalar FogSequentialForward.fog[58].dispatcher remoteJobs_class_1 1749391
scalar FogSequentialForward.fog[58].dispatcher localJobs_class_1 16200
scalar FogSequentialForward.fog[58].dispatcher droppedJobsSLA_class_1 4
scalar FogSequentialForward.fog[58].server[0] rho 0.99999129772186
scalar FogSequentialForward.fog[58].server[0] congestionRatio 0
scalar FogSequentialForward.fog[58].server[0] totalJobs 16200
scalar FogSequentialForward.fog[58].server[0] droppedJobsQueue 2392
scalar FogSequentialForward.fog[58].server[0] droppedJobsTimout 0
scalar FogSequentialForward.fog[58].server[0] droppedJobsSLA 10504
scalar FogSequentialForward.fog[58].server[0] droppedJobsTotal 12896
scalar FogSequentialForward.fog[59].dispatcher localJobs 16216
scalar FogSequentialForward.fog[59].dispatcher internalJobs 16209
scalar FogSequentialForward.fog[59].dispatcher externalJobs 1751536
scalar FogSequentialForward.fog[59].dispatcher remoteJobs 1751527
scalar FogSequentialForward.fog[59].dispatcher probeQueries 0
scalar FogSequentialForward.fog[59].dispatcher probeAnswers 0
scalar FogSequentialForward.fog[59].dispatcher droppedJobsSLA 2
scalar FogSequentialForward.fog[59].dispatcher jobs_class_1 1767745
scalar FogSequentialForward.fog[59].dispatcher remoteJobs_class_1 1751527
scalar FogSequentialForward.fog[59].dispatcher localJobs_class_1 16216
scalar FogSequentialForward.fog[59].dispatcher droppedJobsSLA_class_1 2
scalar FogSequentialForward.fog[59].server[0] rho 1
scalar FogSequentialForward.fog[59].server[0] congestionRatio 0
scalar FogSequentialForward.fog[59].server[0] totalJobs 16216
scalar FogSequentialForward.fog[59].server[0] droppedJobsQueue 2392
scalar FogSequentialForward.fog[59].server[0] droppedJobsTimout 0
scalar FogSequentialForward.fog[59].server[0] droppedJobsSLA 10543
scalar FogSequentialForward.fog[59].server[0] droppedJobsTotal 12935
scalar FogSequentialForward.fog[60].dispatcher localJobs 16190
scalar FogSequentialForward.fog[60].dispatcher internalJobs 16033
scalar FogSequentialForward.fog[60].dispatcher externalJobs 1746932
scalar FogSequentialForward.fog[60].dispatcher remoteJobs 1746772
scalar FogSequentialForward.fog[60].dispatcher probeQueries 0
scalar FogSequentialForward.fog[60].dispatcher probeAnswers 0
scalar FogSequentialForward.fog[60].dispatcher droppedJobsSLA 3
scalar FogSequentialForward.fog[60].dispatcher jobs_class_1 1762965
scalar FogSequentialForward.fog[60].dispatcher remoteJobs_class_1 1746772
scalar FogSequentialForward.fog[60].dispatcher localJobs_class_1 16190
scalar FogSequentialForward.fog[60].dispatcher droppedJobsSLA_class_1 3
scalar FogSequentialForward.fog[60].server[0] rho 1
scalar FogSequentialForward.fog[60].server[0] congestionRatio 0
scalar FogSequentialForward.fog[60].server[0] totalJobs 16190
scalar FogSequentialForward.fog[60].server[0] droppedJobsQueue 2393
scalar FogSequentialForward.fog[60].server[0] droppedJobsTimout 0
scalar FogSequentialForward.fog[60].server[0] droppedJobsSLA 10564
scalar FogSequentialForward.fog[60].server[0] droppedJobsTotal 12957
scalar FogSequentialForward.fog[61].dispatcher localJobs 16227
scalar FogSequentialForward.fog[61].dispatcher internalJobs 16109
scalar FogSequentialForward.fog[61].dispatcher externalJobs 1749007
scalar FogSequentialForward.fog[61].dispatcher remoteJobs 1748889
scalar FogSequentialForward.fog[61].dispatcher probeQueries 0
scalar FogSequentialForward.fog[61].dispatcher probeAnswers 0
scalar FogSequentialForward.fog[61].dispatcher droppedJobsSLA 0
scalar FogSequentialForward.fog[61].dispatcher jobs_class_1 1765116
scalar FogSequentialForward.fog[61].dispatcher remoteJobs_class_1 1748889
scalar FogSequentialForward.fog[61].dispatcher localJobs_class_1 16227
scalar FogSequentialForward.fog[61].server[0] rho 1
scalar FogSequentialForward.fog[61].server[0] congestionRatio 0
scalar FogSequentialForward.fog[61].server[0] totalJobs 16227
scalar FogSequentialForward.fog[61].server[0] droppedJobsQueue 2393
scalar FogSequentialForward.fog[61].server[0] droppedJobsTimout 0
scalar FogSequentialForward.fog[61].server[0] droppedJobsSLA 10534
scalar FogSequentialForward.fog[61].server[0] droppedJobsTotal 12927
scalar FogSequentialForward.fog[62].dispatcher localJobs 16214
scalar FogSequentialForward.fog[62].dispatcher internalJobs 16285
scalar FogSequentialForward.fog[62].dispatcher externalJobs 1747040
scalar FogSequentialForward.fog[62].dispatcher remoteJobs 1747108
scalar FogSequentialForward.fog[62].dispatcher probeQueries 0
scalar FogSequentialForward.fog[62].dispatcher probeAnswers 0
scalar FogSequentialForward.fog[62].dispatcher droppedJobsSLA 3
scalar FogSequentialForward.fog[62].dispatcher jobs_class_1 1763325
scalar FogSequentialForward.fog[62].dispatcher remoteJobs_class_1 1747108
scalar FogSequentialForward.fog[62].dispatcher localJobs_class_1 16214
scalar FogSequentialForward.fog[62].dispatcher droppedJobsSLA_class_1 3
scalar FogSequentialForward.fog[62].server[0] rho 1
scalar FogSequentialForward.fog[62].server[0] congestionRatio 0
scalar FogSequentialForward.fog[62].server[0] totalJobs 16214
scalar FogSequentialForward.fog[62].server[0] droppedJobsQueue 2395
scalar FogSequentialForward.fog[62].server[0] droppedJobsTimout 0
scalar FogSequentialForward.fog[62].server[0] droppedJobsSLA 10539
scalar FogSequentialForward.fog[62].server[0] droppedJobsTotal 12934
scalar FogSequentialForward.fog[63].dispatcher localJobs 16203
scalar FogSequentialForward.fog[63].dispatcher internalJobs 16071
scalar FogSequentialForward.fog[63].dispatcher externalJobs 1749756
scalar FogSequentialForward.fog[63].dispatcher remoteJobs 1749622
scalar FogSequentialForward.fog[63].dispatcher probeQueries 0
scalar FogSequentialForward.fog[63].dispatcher probeAnswers 0
scalar FogSequentialForward.fog[63].dispatcher droppedJobsSLA 2
scalar FogSequentialForward.fog[63].dispatcher jobs_class_1 1765827
scalar FogSequentialForward.fog[63].dispatcher remoteJobs_class_1 1749622
scalar FogSequentialForward.fog[63].dispatcher localJobs_class_1 16203
scalar FogSequentialForward.fog[63].dispatcher droppedJobsSLA_class_1 2
scalar FogSequentialForward.fog[63].server[0] rho 1
scalar FogSequentialForward.fog[63].server[0] congestionRatio 0
scalar FogSequentialForward.fog[63].server[0] totalJobs 16203
scalar FogSequentialForward.fog[63].server[0] droppedJobsQueue 2384
scalar FogSequentialForward.fog[63].server[0] droppedJobsTimout 0
scalar FogSequentialForward.fog[63].server[0] droppedJobsSLA 10527
scalar FogSequentialForward.fog[63].server[0] droppedJobsTotal 12911
scalar FogSequentialForward.fog[64].dispatcher localJobs 16180
scalar FogSequentialForward.fog[64].dispatcher internalJobs 16136
scalar FogSequentialForward.fog[64].dispatcher externalJobs 1748832
scalar FogSequentialForward.fog[64].dispatcher remoteJobs 1748784
scalar FogSequentialForward.fog[64].dispatcher probeQueries 0
scalar FogSequentialForward.fog[64].dispatcher probeAnswers 0
scalar FogSequentialForward.fog[64].dispatcher droppedJobsSLA 4
scalar FogSequentialForward.fog[64].dispatcher jobs_class_1 1764968
scalar FogSequentialForward.fog[64].dispatcher remoteJobs_class_1 1748784
scalar FogSequentialForward.fog[64].dispatcher localJobs_class_1 16180
scalar FogSequentialForward.fog[64].dispatcher droppedJobsSLA_class_1 4
scalar FogSequentialForward.fog[64].server[0] rho 1
scalar FogSequentialForward.fog[64].server[0] congestionRatio 0
scalar FogSequentialForward.fog[64].server[0] totalJobs 16180
scalar FogSequentialForward.fog[64].server[0] droppedJobsQueue 2378
scalar FogSequentialForward.fog[64].server[0] droppedJobsTimout 0
scalar FogSequentialForward.fog[64].server[0] droppedJobsSLA 10555
scalar FogSequentialForward.fog[64].server[0] droppedJobsTotal 12933
scalar FogSequentialForward.fog[65].dispatcher localJobs 16190
scalar FogSequentialForward.fog[65].dispatcher internalJobs 16192
scalar FogSequentialForward.fog[65].dispatcher externalJobs 1749304
scalar FogSequentialForward.fog[65].dispatcher remoteJobs 1749305
scalar FogSequentialForward.fog[65].dispatcher probeQueries 0
scalar FogSequentialForward.fog[65].dispatcher probeAnswers 0
scalar FogSequentialForward.fog[65].dispatcher droppedJobsSLA 1
scalar FogSequentialForward.fog[65].dispatcher jobs_class_1 1765496
scalar FogSequentialForward.fog[65].dispatcher remoteJobs_class_1 1749305
scalar FogSequentialForward.fog[65].dispatcher localJobs_class_1 16190
scalar FogSequentialForward.fog[65].dispatcher droppedJobsSLA_class_1 1
scalar FogSequentialForward.fog[65].server[0] rho 1
scalar FogSequentialForward.fog[65].server[0] congestionRatio 0
scalar FogSequentialForward.fog[65].server[0] totalJobs 16190
scalar FogSequentialForward.fog[65].server[0] droppedJobsQueue 2369
scalar FogSequentialForward.fog[65].server[0] droppedJobsTimout 0
scalar FogSequentialForward.fog[65].server[0] droppedJobsSLA 10494
scalar FogSequentialForward.fog[65].server[0] droppedJobsTotal 12863
scalar FogSequentialForward.fog[66].dispatcher localJobs 16217
scalar FogSequentialForward.fog[66].dispatcher internalJobs 16058
scalar FogSequentialForward.fog[66].dispatcher externalJobs 1750195
scalar FogSequentialForward.fog[66].dispatcher remoteJobs 1750031
scalar FogSequentialForward.fog[66].dispatcher probeQueries 0
scalar FogSequentialForward.fog[66].dispatcher probeAnswers 0
scalar FogSequentialForward.fog[66].dispatcher droppedJobsSLA 5
scalar FogSequentialForward.fog[66].dispatcher jobs_class_1 1766253
scalar FogSequentialForward.fog[66].dispatcher remoteJobs_class_1 1750031
scalar FogSequentialForward.fog[66].dispatcher localJobs_class_1 16217
scalar FogSequentialForward.fog[66].dispatcher droppedJobsSLA_class_1 5
scalar FogSequentialForward.fog[66].server[0] rho 1
scalar FogSequentialForward.fog[66].server[0] congestionRatio 0
scalar FogSequentialForward.fog[66].server[0] totalJobs 16217
scalar FogSequentialForward.fog[66].server[0] droppedJobsQueue 2374
[...]
scalar FogSequentialForward.fog[84].dispatcher localJobs 16216
scalar FogSequentialForward.fog[84].dispatcher internalJobs 15967
scalar FogSequentialForward.fog[84].dispatcher externalJobs 1750296
scalar FogSequentialForward.fog[84].dispatcher remoteJobs 1750046
scalar FogSequentialForward.fog[84].dispatcher probeQueries 0
scalar FogSequentialForward.fog[84].dispatcher probeAnswers 0
scalar FogSequentialForward.fog[84].dispatcher droppedJobsSLA 1
scalar FogSequentialForward.fog[84].dispatcher jobs_class_1 1766263
scalar FogSequentialForward.fog[84].dispatcher remoteJobs_class_1 1750046
scalar FogSequentialForward.fog[84].dispatcher localJobs_class_1 16216
scalar FogSequentialForward.fog[84].dispatcher droppedJobsSLA_class_1 1
scalar FogSequentialForward.fog[84].server[0] rho 1
scalar FogSequentialForward.fog[84].server[0] congestionRatio 0
scalar FogSequentialForward.fog[84].server[0] totalJobs 16216
scalar FogSequentialForward.fog[84].server[0] droppedJobsQueue 2393
scalar FogSequentialForward.fog[84].server[0] droppedJobsTimout 0
scalar FogSequentialForward.fog[84].server[0] droppedJobsSLA 10507
scalar FogSequentialForward.fog[84].server[0] droppedJobsTotal 12900
scalar FogSequentialForward.fog[85].dispatcher localJobs 16162
scalar FogSequentialForward.fog[85].dispatcher internalJobs 16182
scalar FogSequentialForward.fog[85].dispatcher externalJobs 1748909
scalar FogSequentialForward.fog[85].dispatcher remoteJobs 1748926
scalar FogSequentialForward.fog[85].dispatcher probeQueries 0
scalar FogSequentialForward.fog[85].dispatcher probeAnswers 0
scalar FogSequentialForward.fog[85].dispatcher droppedJobsSLA 3
scalar FogSequentialForward.fog[85].dispatcher jobs_class_1 1765091
scalar FogSequentialForward.fog[85].dispatcher remoteJobs_class_1 1748926
scalar FogSequentialForward.fog[85].dispatcher localJobs_class_1 16162
scalar FogSequentialForward.fog[85].dispatcher droppedJobsSLA_class_1 3
scalar FogSequentialForward.fog[85].server[0] rho 1
scalar FogSequentialForward.fog[85].server[0] congestionRatio 0
scalar FogSequentialForward.fog[85].server[0] totalJobs 16162
scalar FogSequentialForward.fog[85].server[0] droppedJobsQueue 2376
scalar FogSequentialForward.fog[85].server[0] droppedJobsTimout 0
scalar FogSequentialForward.fog[85].server[0] droppedJobsSLA 10473
scalar FogSequentialForward.fog[85].server[0] droppedJobsTotal 12849
scalar FogSequentialForward.fog[86].dispatcher localJobs 16199
scalar FogSequentialForward.fog[86].dispatcher internalJobs 16214
scalar FogSequentialForward.fog[86].dispatcher externalJobs 1746956
scalar FogSequentialForward.fog[86].dispatcher remoteJobs 1746971
scalar FogSequentialForward.fog[86].dispatcher probeQueries 0
scalar FogSequentialForward.fog[86].dispatcher probeAnswers 0
scalar FogSequentialForward.fog[86].dispatcher droppedJobsSLA 0
scalar FogSequentialForward.fog[86].dispatcher jobs_class_1 1763170
scalar FogSequentialForward.fog[86].dispatcher remoteJobs_class_1 1746971
scalar FogSequentialForward.fog[86].dispatcher localJobs_class_1 16199
scalar FogSequentialForward.fog[86].server[0] rho 1
scalar FogSequentialForward.fog[86].server[0] congestionRatio 0
scalar FogSequentialForward.fog[86].server[0] totalJobs 16199
scalar FogSequentialForward.fog[86].server[0] droppedJobsQueue 2379
scalar FogSequentialForward.fog[86].server[0] droppedJobsTimout 0
scalar FogSequentialForward.fog[86].server[0] droppedJobsSLA 10528
scalar FogSequentialForward.fog[86].server[0] droppedJobsTotal 12907
scalar FogSequentialForward.fog[87].dispatcher localJobs 16210
scalar FogSequentialForward.fog[87].dispatcher internalJobs 16272
scalar FogSequentialForward.fog[87].dispatcher externalJobs 1749742
scalar FogSequentialForward.fog[87].dispatcher remoteJobs 1749803
scalar FogSequentialForward.fog[87].dispatcher probeQueries 0
scalar FogSequentialForward.fog[87].dispatcher probeAnswers 0
scalar FogSequentialForward.fog[87].dispatcher droppedJobsSLA 1
scalar FogSequentialForward.fog[87].dispatcher jobs_class_1 1766014
scalar FogSequentialForward.fog[87].dispatcher remoteJobs_class_1 1749803
scalar FogSequentialForward.fog[87].dispatcher localJobs_class_1 16210
scalar FogSequentialForward.fog[87].dispatcher droppedJobsSLA_class_1 1
scalar FogSequentialForward.fog[87].server[0] rho 1
scalar FogSequentialForward.fog[87].server[0] congestionRatio 0
scalar FogSequentialForward.fog[87].server[0] totalJobs 16210
scalar FogSequentialForward.fog[87].server[0] droppedJobsQueue 2386
scalar FogSequentialForward.fog[87].server[0] droppedJobsTimout 0
scalar FogSequentialForward.fog[87].server[0] droppedJobsSLA 10548
scalar FogSequentialForward.fog[87].server[0] droppedJobsTotal 12934
scalar FogSequentialForward.fog[88].dispatcher localJobs 16216
scalar FogSequentialForward.fog[88].dispatcher internalJobs 16324
scalar FogSequentialForward.fog[88].dispatcher externalJobs 1747537
scalar FogSequentialForward.fog[88].dispatcher remoteJobs 1747641
scalar FogSequentialForward.fog[88].dispatcher probeQueries 0
scalar FogSequentialForward.fog[88].dispatcher probeAnswers 0
scalar FogSequentialForward.fog[88].dispatcher droppedJobsSLA 4
scalar FogSequentialForward.fog[88].dispatcher jobs_class_1 1763861
scalar FogSequentialForward.fog[88].dispatcher remoteJobs_class_1 1747641
scalar FogSequentialForward.fog[88].dispatcher localJobs_class_1 16216
scalar FogSequentialForward.fog[88].dispatcher droppedJobsSLA_class_1 4
scalar FogSequentialForward.fog[88].server[0] rho 0.99996256828308
scalar FogSequentialForward.fog[88].server[0] congestionRatio 0
scalar FogSequentialForward.fog[88].server[0] totalJobs 16216
scalar FogSequentialForward.fog[88].server[0] droppedJobsQueue 2385
scalar FogSequentialForward.fog[88].server[0] droppedJobsTimout 0
scalar FogSequentialForward.fog[88].server[0] droppedJobsSLA 10563
scalar FogSequentialForward.fog[88].server[0] droppedJobsTotal 12948
scalar FogSequentialForward.fog[89].dispatcher localJobs 16178
scalar FogSequentialForward.fog[89].dispatcher internalJobs 16318
scalar FogSequentialForward.fog[89].dispatcher externalJobs 1749506
scalar FogSequentialForward.fog[89].dispatcher remoteJobs 1749645
scalar FogSequentialForward.fog[89].dispatcher probeQueries 0
scalar FogSequentialForward.fog[89].dispatcher probeAnswers 0
scalar FogSequentialForward.fog[89].dispatcher droppedJobsSLA 1
scalar FogSequentialForward.fog[89].dispatcher jobs_class_1 1765824
scalar FogSequentialForward.fog[89].dispatcher remoteJobs_class_1 1749645
scalar FogSequentialForward.fog[89].dispatcher localJobs_class_1 16178
scalar FogSequentialForward.fog[89].dispatcher droppedJobsSLA_class_1 1
scalar FogSequentialForward.fog[89].server[0] rho 0.99986809492111
scalar FogSequentialForward.fog[89].server[0] congestionRatio 0
scalar FogSequentialForward.fog[89].server[0] totalJobs 16178
scalar FogSequentialForward.fog[89].server[0] droppedJobsQueue 2385
scalar FogSequentialForward.fog[89].server[0] droppedJobsTimout 0
scalar FogSequentialForward.fog[89].server[0] droppedJobsSLA 10520
scalar FogSequentialForward.fog[89].server[0] droppedJobsTotal 12905
scalar FogSequentialForward.fog[90].dispatcher localJobs 16208
scalar FogSequentialForward.fog[90].dispatcher internalJobs 16035
scalar FogSequentialForward.fog[90].dispatcher externalJobs 1748806
scalar FogSequentialForward.fog[90].dispatcher remoteJobs 1748632
scalar FogSequentialForward.fog[90].dispatcher probeQueries 0
scalar FogSequentialForward.fog[90].dispatcher probeAnswers 0
scalar FogSequentialForward.fog[90].dispatcher droppedJobsSLA 1
scalar FogSequentialForward.fog[90].dispatcher jobs_class_1 1764841
scalar FogSequentialForward.fog[90].dispatcher remoteJobs_class_1 1748632
scalar FogSequentialForward.fog[90].dispatcher localJobs_class_1 16208
scalar FogSequentialForward.fog[90].dispatcher droppedJobsSLA_class_1 1
scalar FogSequentialForward.fog[90].server[0] rho 1
scalar FogSequentialForward.fog[90].server[0] congestionRatio 0
scalar FogSequentialForward.fog[90].server[0] totalJobs 16208
scalar FogSequentialForward.fog[90].server[0] droppedJobsQueue 2384
scalar FogSequentialForward.fog[90].server[0] droppedJobsTimout 0
scalar FogSequentialForward.fog[90].server[0] droppedJobsSLA 10523
scalar FogSequentialForward.fog[90].server[0] droppedJobsTotal 12907
scalar FogSequentialForward.fog[91].dispatcher localJobs 16199
scalar FogSequentialForward.fog[91].dispatcher internalJobs 16262
scalar FogSequentialForward.fog[91].dispatcher externalJobs 1747257
scalar FogSequentialForward.fog[91].dispatcher remoteJobs 1747317
scalar FogSequentialForward.fog[91].dispatcher probeQueries 0
scalar FogSequentialForward.fog[91].dispatcher probeAnswers 0
scalar FogSequentialForward.fog[91].dispatcher droppedJobsSLA 3
scalar FogSequentialForward.fog[91].dispatcher jobs_class_1 1763519
scalar FogSequentialForward.fog[91].dispatcher remoteJobs_class_1 1747317
scalar FogSequentialForward.fog[91].dispatcher localJobs_class_1 16199
scalar FogSequentialForward.fog[91].dispatcher droppedJobsSLA_class_1 3
scalar FogSequentialForward.fog[91].server[0] rho 1
scalar FogSequentialForward.fog[91].server[0] congestionRatio 0
scalar FogSequentialForward.fog[91].server[0] totalJobs 16199
scalar FogSequentialForward.fog[91].server[0] droppedJobsQueue 2383
scalar FogSequentialForward.fog[91].server[0] droppedJobsTimout 0
scalar FogSequentialForward.fog[91].server[0] droppedJobsSLA 10496
scalar FogSequentialForward.fog[91].server[0] droppedJobsTotal 12879
scalar FogSequentialForward.fog[92].dispatcher localJobs 16210
scalar FogSequentialForward.fog[92].dispatcher internalJobs 16379
scalar FogSequentialForward.fog[92].dispatcher externalJobs 1748652
scalar FogSequentialForward.fog[92].dispatcher remoteJobs 1748819
scalar FogSequentialForward.fog[92].dispatcher probeQueries 0
scalar FogSequentialForward.fog[92].dispatcher probeAnswers 0
scalar FogSequentialForward.fog[92].dispatcher droppedJobsSLA 2
scalar FogSequentialForward.fog[92].dispatcher jobs_class_1 1765031
scalar FogSequentialForward.fog[92].dispatcher remoteJobs_class_1 1748819
scalar FogSequentialForward.fog[92].dispatcher localJobs_class_1 16210
scalar FogSequentialForward.fog[92].dispatcher droppedJobsSLA_class_1 2
scalar FogSequentialForward.fog[92].server[0] rho 1
scalar FogSequentialForward.fog[92].server[0] congestionRatio 0
scalar FogSequentialForward.fog[92].server[0] totalJobs 16210
scalar FogSequentialForward.fog[92].server[0] droppedJobsQueue 2374
scalar FogSequentialForward.fog[92].server[0] droppedJobsTimout 0
scalar FogSequentialForward.fog[92].server[0] droppedJobsSLA 10524
scalar FogSequentialForward.fog[92].server[0] droppedJobsTotal 12898
scalar FogSequentialForward.fog[93].dispatcher localJobs 16201
scalar FogSequentialForward.fog[93].dispatcher internalJobs 16142
scalar FogSequentialForward.fog[93].dispatcher externalJobs 1747211
scalar FogSequentialForward.fog[93].dispatcher remoteJobs 1747151
scalar FogSequentialForward.fog[93].dispatcher probeQueries 0
scalar FogSequentialForward.fog[93].dispatcher probeAnswers 0
scalar FogSequentialForward.fog[93].dispatcher droppedJobsSLA 1
scalar FogSequentialForward.fog[93].dispatcher jobs_class_1 1763353
scalar FogSequentialForward.fog[93].dispatcher remoteJobs_class_1 1747151
scalar FogSequentialForward.fog[93].dispatcher localJobs_class_1 16201
scalar FogSequentialForward.fog[93].dispatcher droppedJobsSLA_class_1 1
scalar FogSequentialForward.fog[93].server[0] rho 1
scalar FogSequentialForward.fog[93].server[0] congestionRatio 0
scalar FogSequentialForward.fog[93].server[0] totalJobs 16201
scalar FogSequentialForward.fog[93].server[0] droppedJobsQueue 2385
scalar FogSequentialForward.fog[93].server[0] droppedJobsTimout 0
scalar FogSequentialForward.fog[93].server[0] droppedJobsSLA 10508
scalar FogSequentialForward.fog[93].server[0] droppedJobsTotal 12893
scalar FogSequentialForward.fog[94].dispatcher localJobs 16203
scalar FogSequentialForward.fog[94].dispatcher internalJobs 16036
scalar FogSequentialForward.fog[94].dispatcher externalJobs 1746556
scalar FogSequentialForward.fog[94].dispatcher remoteJobs 1746387
scalar FogSequentialForward.fog[94].dispatcher probeQueries 0
scalar FogSequentialForward.fog[94].dispatcher probeAnswers 0
scalar FogSequentialForward.fog[94].dispatcher droppedJobsSLA 2
scalar FogSequentialForward.fog[94].dispatcher jobs_class_1 1762592
scalar FogSequentialForward.fog[94].dispatcher remoteJobs_class_1 1746387
scalar FogSequentialForward.fog[94].dispatcher localJobs_class_1 16203
scalar FogSequentialForward.fog[94].dispatcher droppedJobsSLA_class_1 2
scalar FogSequentialForward.fog[94].server[0] rho 1
scalar FogSequentialForward.fog[94].server[0] congestionRatio 0
scalar FogSequentialForward.fog[94].server[0] totalJobs 16203
scalar FogSequentialForward.fog[94].server[0] droppedJobsQueue 2397
scalar FogSequentialForward.fog[94].server[0] droppedJobsTimout 0
scalar FogSequentialForward.fog[94].server[0] droppedJobsSLA 10534
scalar FogSequentialForward.fog[94].server[0] droppedJobsTotal 12931
scalar FogSequentialForward.fog[95].dispatcher localJobs 16204
scalar FogSequentialForward.fog[95].dispatcher internalJobs 16353
scalar FogSequentialForward.fog[95].dispatcher externalJobs 1748092
scalar FogSequentialForward.fog[95].dispatcher remoteJobs 1748240
scalar FogSequentialForward.fog[95].dispatcher probeQueries 0
scalar FogSequentialForward.fog[95].dispatcher probeAnswers 0
scalar FogSequentialForward.fog[95].dispatcher droppedJobsSLA 1
scalar FogSequentialForward.fog[95].dispatcher jobs_class_1 1764445
scalar FogSequentialForward.fog[95].dispatcher remoteJobs_class_1 1748240
scalar FogSequentialForward.fog[95].dispatcher localJobs_class_1 16204
scalar FogSequentialForward.fog[95].dispatcher droppedJobsSLA_class_1 1
scalar FogSequentialForward.fog[95].server[0] rho 1
scalar FogSequentialForward.fog[95].server[0] congestionRatio 0
scalar FogSequentialForward.fog[95].server[0] totalJobs 16204
scalar FogSequentialForward.fog[95].server[0] droppedJobsQueue 2374
scalar FogSequentialForward.fog[95].server[0] droppedJobsTimout 0
scalar FogSequentialForward.fog[95].server[0] droppedJobsSLA 10474
scalar FogSequentialForward.fog[95].server[0] droppedJobsTotal 12848
scalar FogSequentialForward.fog[96].dispatcher localJobs 16215
scalar FogSequentialForward.fog[96].dispatcher internalJobs 16098
scalar FogSequentialForward.fog[96].dispatcher externalJobs 1749873
scalar FogSequentialForward.fog[96].dispatcher remoteJobs 1749752
scalar FogSequentialForward.fog[96].dispatcher probeQueries 0
scalar FogSequentialForward.fog[96].dispatcher probeAnswers 0
scalar FogSequentialForward.fog[96].dispatcher droppedJobsSLA 4
scalar FogSequentialForward.fog[96].dispatcher jobs_class_1 1765971
scalar FogSequentialForward.fog[96].dispatcher remoteJobs_class_1 1749752
scalar FogSequentialForward.fog[96].dispatcher localJobs_class_1 16215
scalar FogSequentialForward.fog[96].dispatcher droppedJobsSLA_class_1 4
scalar FogSequentialForward.fog[96].server[0] rho 1
scalar FogSequentialForward.fog[96].server[0] congestionRatio 0
scalar FogSequentialForward.fog[96].server[0] totalJobs 16215
scalar FogSequentialForward.fog[96].server[0] droppedJobsQueue 2377
scalar FogSequentialForward.fog[96].server[0] droppedJobsTimout 0
scalar FogSequentialForward.fog[96].server[0] droppedJobsSLA 10465
scalar FogSequentialForward.fog[96].server[0] droppedJobsTotal 12842
scalar FogSequentialForward.fog[97].dispatcher localJobs 16212
scalar FogSequentialForward.fog[97].dispatcher internalJobs 16365
scalar FogSequentialForward.fog[97].dispatcher externalJobs 1746133
scalar FogSequentialForward.fog[97].dispatcher remoteJobs 1746284
scalar FogSequentialForward.fog[97].dispatcher probeQueries 0
scalar FogSequentialForward.fog[97].dispatcher probeAnswers 0
scalar FogSequentialForward.fog[97].dispatcher droppedJobsSLA 2
scalar FogSequentialForward.fog[97].dispatcher jobs_class_1 1762498
scalar FogSequentialForward.fog[97].dispatcher remoteJobs_class_1 1746284
scalar FogSequentialForward.fog[97].dispatcher localJobs_class_1 16212
scalar FogSequentialForward.fog[97].dispatcher droppedJobsSLA_class_1 2
scalar FogSequentialForward.fog[97].server[0] rho 0.99998217821121
scalar FogSequentialForward.fog[97].server[0] congestionRatio 0
scalar FogSequentialForward.fog[97].server[0] totalJobs 16212
scalar FogSequentialForward.fog[97].server[0] droppedJobsQueue 2388
scalar FogSequentialForward.fog[97].server[0] droppedJobsTimout 0
scalar FogSequentialForward.fog[97].server[0] droppedJobsSLA 10518
scalar FogSequentialForward.fog[97].server[0] droppedJobsTotal 12906
scalar FogSequentialForward.fog[98].dispatcher localJobs 16235
scalar FogSequentialForward.fog[98].dispatcher internalJobs 16411
scalar FogSequentialForward.fog[98].dispatcher externalJobs 1750534
scalar FogSequentialForward.fog[98].dispatcher remoteJobs 1750709
scalar FogSequentialForward.fog[98].dispatcher probeQueries 0
scalar FogSequentialForward.fog[98].dispatcher probeAnswers 0
scalar FogSequentialForward.fog[98].dispatcher droppedJobsSLA 1
scalar FogSequentialForward.fog[98].dispatcher jobs_class_1 1766945
scalar FogSequentialForward.fog[98].dispatcher remoteJobs_class_1 1750709
scalar FogSequentialForward.fog[98].dispatcher localJobs_class_1 16235
scalar FogSequentialForward.fog[98].dispatcher droppedJobsSLA_class_1 1
scalar FogSequentialForward.fog[98].server[0] rho 1
scalar FogSequentialForward.fog[98].server[0] congestionRatio 0
scalar FogSequentialForward.fog[98].server[0] totalJobs 16235
scalar FogSequentialForward.fog[98].server[0] droppedJobsQueue 2399
scalar FogSequentialForward.fog[98].server[0] droppedJobsTimout 0
scalar FogSequentialForward.fog[98].server[0] droppedJobsSLA 10593
scalar FogSequentialForward.fog[98].server[0] droppedJobsTotal 12992
scalar FogSequentialForward.fog[99].dispatcher localJobs 16200
scalar FogSequentialForward.fog[99].dispatcher internalJobs 16252
scalar FogSequentialForward.fog[99].dispatcher externalJobs 1750979
scalar FogSequentialForward.fog[99].dispatcher remoteJobs 1751026
scalar FogSequentialForward.fog[99].dispatcher probeQueries 0
scalar FogSequentialForward.fog[99].dispatcher probeAnswers 0
scalar FogSequentialForward.fog[99].dispatcher droppedJobsSLA 5
scalar FogSequentialForward.fog[99].dispatcher jobs_class_1 1767231
scalar FogSequentialForward.fog[99].dispatcher remoteJobs_class_1 1751026
scalar FogSequentialForward.fog[99].dispatcher localJobs_class_1 16200
scalar FogSequentialForward.fog[99].dispatcher droppedJobsSLA_class_1 5
scalar FogSequentialForward.fog[99].server[0] rho 1
scalar FogSequentialForward.fog[99].server[0] congestionRatio 0
scalar FogSequentialForward.fog[99].server[0] totalJobs 16200
scalar FogSequentialForward.fog[99].server[0] droppedJobsQueue 2379
scalar FogSequentialForward.fog[99].server[0] droppedJobsTimout 0
scalar FogSequentialForward.fog[99].server[0] droppedJobsSLA 10563
scalar FogSequentialForward.fog[99].server[0] droppedJobsTotal 12942
scalar FogSequentialForward.sink avg_responseTime_1 15.134987040606
scalar FogSequentialForward.sink p90_responseTime_1 1.580256354744
scalar FogSequentialForward.sink med_responseTime_1 1.580256354744
scalar FogSequentialForward.sink avg_delayTime_1 0
scalar FogSequentialForward.sink p90_delayTime_1 0
scalar FogSequentialForward.sink med_delayTime_1 0
scalar FogSequentialForward.sink avg_queuingTime_1 12.56085909869
scalar FogSequentialForward.sink p90_queuingTime_1 0
scalar FogSequentialForward.sink med_queuingTime_1 0
scalar FogSequentialForward.sink avg_serviceTime_1 1.6756330902385
scalar FogSequentialForward.sink p90_serviceTime_1 1.514244659901
scalar FogSequentialForward.sink med_serviceTime_1 1.514244659901
scalar FogSequentialForward.sink avg_balancerTime_1 0.89849485167693
scalar FogSequentialForward.sink p90_balancerTime_1 0
scalar FogSequentialForward.sink med_balancerTime_1 0
scalar FogSequentialForward.sink avg_balancerCount_1 54.80208692679
scalar FogSequentialForward.sink p90_balancerCount_1 1
scalar FogSequentialForward.sink med_balancerCount_1 1

