version 2
run Fog-mul_001-rho_09-thr_17-4-20190714-00:28:48-84717
attr configname Fog-mul_001-rho_09-thr_17
attr datetime 20190714-00:28:48
attr experiment Fog-mul_001-rho_09-thr_17
attr inifile FogSequentialForward.ini
attr iterationvars ""
attr iterationvarsf ""
attr measurement ""
attr network FogSequentialForward
attr processid 84717
attr repetition 4
attr replication #4
attr resultdir results
attr runnumber 4
attr seedset 4
param FogSequentialForward.proctimeMul 0.01
param FogSequentialForward.rho 0.9
param FogSequentialForward.fog[*].dispatcher.thr 17
param FogSequentialForward.nSources 100
param FogSequentialForward.rho 0.9
param FogSequentialForward.proctimeMul 1.0
param FogSequentialForward.source[*].appId 1
param FogSequentialForward.source[*].realTime true
param FogSequentialForward.source[*].multiHop true
param FogSequentialForward.fog[*].nServers 1
param FogSequentialForward.fog[*].dispatcher.fanOut 1
param FogSequentialForward.fog[*].server[*].timeSlice -1s
param FogSequentialForward.fog[*].server[*].timeout -1s
param FogSequentialForward.fog[*].server[*].capacity 20
param FogSequentialForward.fog[*].server[*].fifo true
param FogSequentialForward.fog[*].server[*].maxServiceTime -1s
param FogSequentialForward.fog[*].dispatcher.thr 1

scalar FogSequentialForward.fog[0].dispatcher localJobs 1580114
scalar FogSequentialForward.fog[0].dispatcher internalJobs 1622888
scalar FogSequentialForward.fog[0].dispatcher externalJobs 3823018
scalar FogSequentialForward.fog[0].dispatcher remoteJobs 3821988
scalar FogSequentialForward.fog[0].dispatcher probeQueries 0
scalar FogSequentialForward.fog[0].dispatcher probeAnswers 0
scalar FogSequentialForward.fog[0].dispatcher droppedJobsSLA 43804
scalar FogSequentialForward.fog[0].dispatcher jobs_class_1 5445906
scalar FogSequentialForward.fog[0].dispatcher remoteJobs_class_1 3821988
scalar FogSequentialForward.fog[0].dispatcher localJobs_class_1 1580114
scalar FogSequentialForward.fog[0].dispatcher droppedJobsSLA_class_1 43804
scalar FogSequentialForward.fog[0].server[0] rho 1
scalar FogSequentialForward.fog[0].server[0] congestionRatio 0
scalar FogSequentialForward.fog[0].server[0] totalJobs 1580114
scalar FogSequentialForward.fog[0].server[0] droppedJobsQueue 139417
scalar FogSequentialForward.fog[0].server[0] droppedJobsTimout 0
scalar FogSequentialForward.fog[0].server[0] droppedJobsSLA 1062466
scalar FogSequentialForward.fog[0].server[0] droppedJobsTotal 1201883
scalar FogSequentialForward.fog[1].dispatcher localJobs 1580107
scalar FogSequentialForward.fog[1].dispatcher internalJobs 1623422
scalar FogSequentialForward.fog[1].dispatcher externalJobs 3824573
scalar FogSequentialForward.fog[1].dispatcher remoteJobs 3824024
scalar FogSequentialForward.fog[1].dispatcher probeQueries 0
scalar FogSequentialForward.fog[1].dispatcher probeAnswers 0
scalar FogSequentialForward.fog[1].dispatcher droppedJobsSLA 43864
scalar FogSequentialForward.fog[1].dispatcher jobs_class_1 5447995
scalar FogSequentialForward.fog[1].dispatcher remoteJobs_class_1 3824024
scalar FogSequentialForward.fog[1].dispatcher localJobs_class_1 1580107
scalar FogSequentialForward.fog[1].dispatcher droppedJobsSLA_class_1 43864
scalar FogSequentialForward.fog[1].server[0] rho 1
scalar FogSequentialForward.fog[1].server[0] congestionRatio 0
scalar FogSequentialForward.fog[1].server[0] totalJobs 1580107
scalar FogSequentialForward.fog[1].server[0] droppedJobsQueue 139496
scalar FogSequentialForward.fog[1].server[0] droppedJobsTimout 0
scalar FogSequentialForward.fog[1].server[0] droppedJobsSLA 1061958
scalar FogSequentialForward.fog[1].server[0] droppedJobsTotal 1201454
scalar FogSequentialForward.fog[2].dispatcher localJobs 1579013
scalar FogSequentialForward.fog[2].dispatcher internalJobs 1622951
scalar FogSequentialForward.fog[2].dispatcher externalJobs 3817633
scalar FogSequentialForward.fog[2].dispatcher remoteJobs 3817460
scalar FogSequentialForward.fog[2].dispatcher probeQueries 0
scalar FogSequentialForward.fog[2].dispatcher probeAnswers 0
scalar FogSequentialForward.fog[2].dispatcher droppedJobsSLA 44111
scalar FogSequentialForward.fog[2].dispatcher jobs_class_1 5440584
scalar FogSequentialForward.fog[2].dispatcher remoteJobs_class_1 3817460
scalar FogSequentialForward.fog[2].dispatcher localJobs_class_1 1579013
scalar FogSequentialForward.fog[2].dispatcher droppedJobsSLA_class_1 44111
scalar FogSequentialForward.fog[2].server[0] rho 1
scalar FogSequentialForward.fog[2].server[0] congestionRatio 0
scalar FogSequentialForward.fog[2].server[0] totalJobs 1579013
scalar FogSequentialForward.fog[2].server[0] droppedJobsQueue 138828
scalar FogSequentialForward.fog[2].server[0] droppedJobsTimout 0
scalar FogSequentialForward.fog[2].server[0] droppedJobsSLA 1061172
scalar FogSequentialForward.fog[2].server[0] droppedJobsTotal 1200000
scalar FogSequentialForward.fog[3].dispatcher localJobs 1578956
scalar FogSequentialForward.fog[3].dispatcher internalJobs 1623245
scalar FogSequentialForward.fog[3].dispatcher externalJobs 3821316
scalar FogSequentialForward.fog[3].dispatcher remoteJobs 3821590
scalar FogSequentialForward.fog[3].dispatcher probeQueries 0
scalar FogSequentialForward.fog[3].dispatcher probeAnswers 0
scalar FogSequentialForward.fog[3].dispatcher droppedJobsSLA 44015
scalar FogSequentialForward.fog[3].dispatcher jobs_class_1 5444561
scalar FogSequentialForward.fog[3].dispatcher remoteJobs_class_1 3821590
scalar FogSequentialForward.fog[3].dispatcher localJobs_class_1 1578956
scalar FogSequentialForward.fog[3].dispatcher droppedJobsSLA_class_1 44015
scalar FogSequentialForward.fog[3].server[0] rho 1
scalar FogSequentialForward.fog[3].server[0] congestionRatio 0
scalar FogSequentialForward.fog[3].server[0] totalJobs 1578956
scalar FogSequentialForward.fog[3].server[0] droppedJobsQueue 139046
scalar FogSequentialForward.fog[3].server[0] droppedJobsTimout 0
scalar FogSequentialForward.fog[3].server[0] droppedJobsSLA 1061950
scalar FogSequentialForward.fog[3].server[0] droppedJobsTotal 1200996
scalar FogSequentialForward.fog[4].dispatcher localJobs 1580388
scalar FogSequentialForward.fog[4].dispatcher internalJobs 1623253
scalar FogSequentialForward.fog[4].dispatcher externalJobs 3822560
scalar FogSequentialForward.fog[4].dispatcher remoteJobs 3821792
scalar FogSequentialForward.fog[4].dispatcher probeQueries 0
scalar FogSequentialForward.fog[4].dispatcher probeAnswers 0
scalar FogSequentialForward.fog[4].dispatcher droppedJobsSLA 43633
scalar FogSequentialForward.fog[4].dispatcher jobs_class_1 5445813
scalar FogSequentialForward.fog[4].dispatcher remoteJobs_class_1 3821792
scalar FogSequentialForward.fog[4].dispatcher localJobs_class_1 1580388
scalar FogSequentialForward.fog[4].dispatcher droppedJobsSLA_class_1 43633
scalar FogSequentialForward.fog[4].server[0] rho 1
scalar FogSequentialForward.fog[4].server[0] congestionRatio 0
scalar FogSequentialForward.fog[4].server[0] totalJobs 1580388
scalar FogSequentialForward.fog[4].server[0] droppedJobsQueue 139314
scalar FogSequentialForward.fog[4].server[0] droppedJobsTimout 0
scalar FogSequentialForward.fog[4].server[0] droppedJobsSLA 1062368
scalar FogSequentialForward.fog[4].server[0] droppedJobsTotal 1201682
scalar FogSequentialForward.fog[5].dispatcher localJobs 1579100
scalar FogSequentialForward.fog[5].dispatcher internalJobs 1621960
scalar FogSequentialForward.fog[5].dispatcher externalJobs 3823267
scalar FogSequentialForward.fog[5].dispatcher remoteJobs 3822161
scalar FogSequentialForward.fog[5].dispatcher probeQueries 0
scalar FogSequentialForward.fog[5].dispatcher probeAnswers 0
scalar FogSequentialForward.fog[5].dispatcher droppedJobsSLA 43966
scalar FogSequentialForward.fog[5].dispatcher jobs_class_1 5445227
scalar FogSequentialForward.fog[5].dispatcher remoteJobs_class_1 3822161
scalar FogSequentialForward.fog[5].dispatcher localJobs_class_1 1579100
scalar FogSequentialForward.fog[5].dispatcher droppedJobsSLA_class_1 43966
scalar FogSequentialForward.fog[5].server[0] rho 1
scalar FogSequentialForward.fog[5].server[0] congestionRatio 0
scalar FogSequentialForward.fog[5].server[0] totalJobs 1579100
scalar FogSequentialForward.fog[5].server[0] droppedJobsQueue 138905
scalar FogSequentialForward.fog[5].server[0] droppedJobsTimout 0
scalar FogSequentialForward.fog[5].server[0] droppedJobsSLA 1061862
scalar FogSequentialForward.fog[5].server[0] droppedJobsTotal 1200767
scalar FogSequentialForward.fog[6].dispatcher localJobs 1579080
scalar FogSequentialForward.fog[6].dispatcher internalJobs 1622391
scalar FogSequentialForward.fog[6].dispatcher externalJobs 3819555
scalar FogSequentialForward.fog[6].dispatcher remoteJobs 3819171
scalar FogSequentialForward.fog[6].dispatcher probeQueries 0
scalar FogSequentialForward.fog[6].dispatcher probeAnswers 0
scalar FogSequentialForward.fog[6].dispatcher droppedJobsSLA 43695
scalar FogSequentialForward.fog[6].dispatcher jobs_class_1 5441946
scalar FogSequentialForward.fog[6].dispatcher remoteJobs_class_1 3819171
scalar FogSequentialForward.fog[6].dispatcher localJobs_class_1 1579080
scalar FogSequentialForward.fog[6].dispatcher droppedJobsSLA_class_1 43695
scalar FogSequentialForward.fog[6].server[0] rho 1
scalar FogSequentialForward.fog[6].server[0] congestionRatio 0
scalar FogSequentialForward.fog[6].server[0] totalJobs 1579080
scalar FogSequentialForward.fog[6].server[0] droppedJobsQueue 139029
scalar FogSequentialForward.fog[6].server[0] droppedJobsTimout 0
scalar FogSequentialForward.fog[6].server[0] droppedJobsSLA 1061380
scalar FogSequentialForward.fog[6].server[0] droppedJobsTotal 1200409
scalar FogSequentialForward.fog[7].dispatcher localJobs 1578718
scalar FogSequentialForward.fog[7].dispatcher internalJobs 1620887
scalar FogSequentialForward.fog[7].dispatcher externalJobs 3818029
scalar FogSequentialForward.fog[7].dispatcher remoteJobs 3816341
scalar FogSequentialForward.fog[7].dispatcher probeQueries 0
scalar FogSequentialForward.fog[7].dispatcher probeAnswers 0
scalar FogSequentialForward.fog[7].dispatcher droppedJobsSLA 43857
scalar FogSequentialForward.fog[7].dispatcher jobs_class_1 5438916
scalar FogSequentialForward.fog[7].dispatcher remoteJobs_class_1 3816341
scalar FogSequentialForward.fog[7].dispatcher localJobs_class_1 1578718
scalar FogSequentialForward.fog[7].dispatcher droppedJobsSLA_class_1 43857
scalar FogSequentialForward.fog[7].server[0] rho 1
scalar FogSequentialForward.fog[7].server[0] congestionRatio 0
scalar FogSequentialForward.fog[7].server[0] totalJobs 1578718
scalar FogSequentialForward.fog[7].server[0] droppedJobsQueue 138991
scalar FogSequentialForward.fog[7].server[0] droppedJobsTimout 0
scalar FogSequentialForward.fog[7].server[0] droppedJobsSLA 1061807
scalar FogSequentialForward.fog[7].server[0] droppedJobsTotal 1200798
scalar FogSequentialForward.fog[8].dispatcher localJobs 1580007
scalar FogSequentialForward.fog[8].dispatcher internalJobs 1625085
scalar FogSequentialForward.fog[8].dispatcher externalJobs 3823206
scalar FogSequentialForward.fog[8].dispatcher remoteJobs 3824673
scalar FogSequentialForward.fog[8].dispatcher probeQueries 0
scalar FogSequentialForward.fog[8].dispatcher probeAnswers 0
scalar FogSequentialForward.fog[8].dispatcher droppedJobsSLA 43611
scalar FogSequentialForward.fog[8].dispatcher jobs_class_1 5448291
scalar FogSequentialForward.fog[8].dispatcher remoteJobs_class_1 3824673
scalar FogSequentialForward.fog[8].dispatcher localJobs_class_1 1580007
scalar FogSequentialForward.fog[8].dispatcher droppedJobsSLA_class_1 43611
scalar FogSequentialForward.fog[8].server[0] rho 0.99999898672104
scalar FogSequentialForward.fog[8].server[0] congestionRatio 0
scalar FogSequentialForward.fog[8].server[0] totalJobs 1580007
scalar FogSequentialForward.fog[8].server[0] droppedJobsQueue 139478
scalar FogSequentialForward.fog[8].server[0] droppedJobsTimout 0
scalar FogSequentialForward.fog[8].server[0] droppedJobsSLA 1061499
scalar FogSequentialForward.fog[8].server[0] droppedJobsTotal 1200977
scalar FogSequentialForward.fog[9].dispatcher localJobs 1579165
scalar FogSequentialForward.fog[9].dispatcher internalJobs 1622282
scalar FogSequentialForward.fog[9].dispatcher externalJobs 3820141
scalar FogSequentialForward.fog[9].dispatcher remoteJobs 3819486
scalar FogSequentialForward.fog[9].dispatcher probeQueries 0
scalar FogSequentialForward.fog[9].dispatcher probeAnswers 0
scalar FogSequentialForward.fog[9].dispatcher droppedJobsSLA 43772
scalar FogSequentialForward.fog[9].dispatcher jobs_class_1 5442423
scalar FogSequentialForward.fog[9].dispatcher remoteJobs_class_1 3819486
scalar FogSequentialForward.fog[9].dispatcher localJobs_class_1 1579165
scalar FogSequentialForward.fog[9].dispatcher droppedJobsSLA_class_1 43772
scalar FogSequentialForward.fog[9].server[0] rho 1
scalar FogSequentialForward.fog[9].server[0] congestionRatio 0
scalar FogSequentialForward.fog[9].server[0] totalJobs 1579165
scalar FogSequentialForward.fog[9].server[0] droppedJobsQueue 138968
scalar FogSequentialForward.fog[9].server[0] droppedJobsTimout 0
scalar FogSequentialForward.fog[9].server[0] droppedJobsSLA 1062031
scalar FogSequentialForward.fog[9].server[0] droppedJobsTotal 1200999
scalar FogSequentialForward.fog[10].dispatcher localJobs 1578921
scalar FogSequentialForward.fog[10].dispatcher internalJobs 1623549
scalar FogSequentialForward.fog[10].dispatcher externalJobs 3816874
scalar FogSequentialForward.fog[10].dispatcher remoteJobs 3817798
scalar FogSequentialForward.fog[10].dispatcher probeQueries 0
scalar FogSequentialForward.fog[10].dispatcher probeAnswers 0
scalar FogSequentialForward.fog[10].dispatcher droppedJobsSLA 43704
scalar FogSequentialForward.fog[10].dispatcher jobs_class_1 5440423
scalar FogSequentialForward.fog[10].dispatcher remoteJobs_class_1 3817798
scalar FogSequentialForward.fog[10].dispatcher localJobs_class_1 1578921
scalar FogSequentialForward.fog[10].dispatcher droppedJobsSLA_class_1 43704
scalar FogSequentialForward.fog[10].server[0] rho 1
scalar FogSequentialForward.fog[10].server[0] congestionRatio 0
scalar FogSequentialForward.fog[10].server[0] totalJobs 1578921
scalar FogSequentialForward.fog[10].server[0] droppedJobsQueue 138785
scalar FogSequentialForward.fog[10].server[0] droppedJobsTimout 0
scalar FogSequentialForward.fog[10].server[0] droppedJobsSLA 1061343
scalar FogSequentialForward.fog[10].server[0] droppedJobsTotal 1200128
scalar FogSequentialForward.fog[11].dispatcher localJobs 1580302
scalar FogSequentialForward.fog[11].dispatcher internalJobs 1623237
scalar FogSequentialForward.fog[11].dispatcher externalJobs 3822184
scalar FogSequentialForward.fog[11].dispatcher remoteJobs 3821288
scalar FogSequentialForward.fog[11].dispatcher probeQueries 0
scalar FogSequentialForward.fog[11].dispatcher probeAnswers 0
scalar FogSequentialForward.fog[11].dispatcher droppedJobsSLA 43831
scalar FogSequentialForward.fog[11].dispatcher jobs_class_1 5445421
scalar FogSequentialForward.fog[11].dispatcher remoteJobs_class_1 3821288
scalar FogSequentialForward.fog[11].dispatcher localJobs_class_1 1580302
scalar FogSequentialForward.fog[11].dispatcher droppedJobsSLA_class_1 43831
scalar FogSequentialForward.fog[11].server[0] rho 1
scalar FogSequentialForward.fog[11].server[0] congestionRatio 0
scalar FogSequentialForward.fog[11].server[0] totalJobs 1580302
scalar FogSequentialForward.fog[11].server[0] droppedJobsQueue 139502
scalar FogSequentialForward.fog[11].server[0] droppedJobsTimout 0
scalar FogSequentialForward.fog[11].server[0] droppedJobsSLA 1062094
scalar FogSequentialForward.fog[11].server[0] droppedJobsTotal 1201596
scalar FogSequentialForward.fog[12].dispatcher localJobs 1579129
scalar FogSequentialForward.fog[12].dispatcher internalJobs 1623367
scalar FogSequentialForward.fog[12].dispatcher externalJobs 3821417
scalar FogSequentialForward.fog[12].dispatcher remoteJobs 3822019
scalar FogSequentialForward.fog[12].dispatcher probeQueries 0
scalar FogSequentialForward.fog[12].dispatcher probeAnswers 0
scalar FogSequentialForward.fog[12].dispatcher droppedJobsSLA 43636
scalar FogSequentialForward.fog[12].dispatcher jobs_class_1 5444784
scalar FogSequentialForward.fog[12].dispatcher remoteJobs_class_1 3822019
scalar FogSequentialForward.fog[12].dispatcher localJobs_class_1 1579129
scalar FogSequentialForward.fog[12].dispatcher droppedJobsSLA_class_1 43636
scalar FogSequentialForward.fog[12].server[0] rho 0.99999958276749
scalar FogSequentialForward.fog[12].server[0] congestionRatio 0
scalar FogSequentialForward.fog[12].server[0] totalJobs 1579129
scalar FogSequentialForward.fog[12].server[0] droppedJobsQueue 138877
scalar FogSequentialForward.fog[12].server[0] droppedJobsTimout 0
scalar FogSequentialForward.fog[12].server[0] droppedJobsSLA 1062123
scalar FogSequentialForward.fog[12].server[0] droppedJobsTotal 1201000
scalar FogSequentialForward.fog[13].dispatcher localJobs 1578972
scalar FogSequentialForward.fog[13].dispatcher internalJobs 1622108
scalar FogSequentialForward.fog[13].dispatcher externalJobs 3820468
scalar FogSequentialForward.fog[13].dispatcher remoteJobs 3819969
scalar FogSequentialForward.fog[13].dispatcher probeQueries 0
scalar FogSequentialForward.fog[13].dispatcher probeAnswers 0
scalar FogSequentialForward.fog[13].dispatcher droppedJobsSLA 43635
scalar FogSequentialForward.fog[13].dispatcher jobs_class_1 5442576
scalar FogSequentialForward.fog[13].dispatcher remoteJobs_class_1 3819969
scalar FogSequentialForward.fog[13].dispatcher localJobs_class_1 1578972
scalar FogSequentialForward.fog[13].dispatcher droppedJobsSLA_class_1 43635
scalar FogSequentialForward.fog[13].server[0] rho 1
scalar FogSequentialForward.fog[13].server[0] congestionRatio 0
scalar FogSequentialForward.fog[13].server[0] totalJobs 1578972
scalar FogSequentialForward.fog[13].server[0] droppedJobsQueue 138991
scalar FogSequentialForward.fog[13].server[0] droppedJobsTimout 0
scalar FogSequentialForward.fog[13].server[0] droppedJobsSLA 1062848
scalar FogSequentialForward.fog[13].server[0] droppedJobsTotal 1201839
scalar FogSequentialForward.fog[14].dispatcher localJobs 1579318
scalar FogSequentialForward.fog[14].dispatcher internalJobs 1625047
scalar FogSequentialForward.fog[14].dispatcher externalJobs 3822701
scalar FogSequentialForward.fog[14].dispatcher remoteJobs 3824506
scalar FogSequentialForward.fog[14].dispatcher probeQueries 0
scalar FogSequentialForward.fog[14].dispatcher probeAnswers 0
scalar FogSequentialForward.fog[14].dispatcher droppedJobsSLA 43924
scalar FogSequentialForward.fog[14].dispatcher jobs_class_1 5447748
scalar FogSequentialForward.fog[14].dispatcher remoteJobs_class_1 3824506
scalar FogSequentialForward.fog[14].dispatcher localJobs_class_1 1579318
scalar FogSequentialForward.fog[14].dispatcher droppedJobsSLA_class_1 43924
scalar FogSequentialForward.fog[14].server[0] rho 1
scalar FogSequentialForward.fog[14].server[0] congestionRatio 0
scalar FogSequentialForward.fog[14].server[0] totalJobs 1579318
scalar FogSequentialForward.fog[14].server[0] droppedJobsQueue 139412
scalar FogSequentialForward.fog[14].server[0] droppedJobsTimout 0
scalar FogSequentialForward.fog[14].server[0] droppedJobsSLA 1061800
scalar FogSequentialForward.fog[14].server[0] droppedJobsTotal 1201212
scalar FogSequentialForward.fog[15].dispatcher localJobs 1579430
scalar FogSequentialForward.fog[15].dispatcher internalJobs 1625342
scalar FogSequentialForward.fog[15].dispatcher externalJobs 3819687
scalar FogSequentialForward.fog[15].dispatcher remoteJobs 3821991
scalar FogSequentialForward.fog[15].dispatcher probeQueries 0
scalar FogSequentialForward.fog[15].dispatcher probeAnswers 0
scalar FogSequentialForward.fog[15].dispatcher droppedJobsSLA 43608
scalar FogSequentialForward.fog[15].dispatcher jobs_class_1 5445029
scalar FogSequentialForward.fog[15].dispatcher remoteJobs_class_1 3821991
scalar FogSequentialForward.fog[15].dispatcher localJobs_class_1 1579430
scalar FogSequentialForward.fog[15].dispatcher droppedJobsSLA_class_1 43608
scalar FogSequentialForward.fog[15].server[0] rho 1
scalar FogSequentialForward.fog[15].server[0] congestionRatio 0
scalar FogSequentialForward.fog[15].server[0] totalJobs 1579430
scalar FogSequentialForward.fog[15].server[0] droppedJobsQueue 139185
scalar FogSequentialForward.fog[15].server[0] droppedJobsTimout 0
scalar FogSequentialForward.fog[15].server[0] droppedJobsSLA 1061778
scalar FogSequentialForward.fog[15].server[0] droppedJobsTotal 1200963
scalar FogSequentialForward.fog[16].dispatcher localJobs 1579167
scalar FogSequentialForward.fog[16].dispatcher internalJobs 1623647
scalar FogSequentialForward.fog[16].dispatcher externalJobs 3821017
scalar FogSequentialForward.fog[16].dispatcher remoteJobs 3821877
scalar FogSequentialForward.fog[16].dispatcher probeQueries 0
scalar FogSequentialForward.fog[16].dispatcher probeAnswers 0
scalar FogSequentialForward.fog[16].dispatcher droppedJobsSLA 43620
scalar FogSequentialForward.fog[16].dispatcher jobs_class_1 5444664
scalar FogSequentialForward.fog[16].dispatcher remoteJobs_class_1 3821877
scalar FogSequentialForward.fog[16].dispatcher localJobs_class_1 1579167
scalar FogSequentialForward.fog[16].dispatcher droppedJobsSLA_class_1 43620
scalar FogSequentialForward.fog[16].server[0] rho 1
scalar FogSequentialForward.fog[16].server[0] congestionRatio 0
scalar FogSequentialForward.fog[16].server[0] totalJobs 1579167
scalar FogSequentialForward.fog[16].server[0] droppedJobsQueue 139109
scalar FogSequentialForward.fog[16].server[0] droppedJobsTimout 0
scalar FogSequentialForward.fog[16].server[0] droppedJobsSLA 1062393
scalar FogSequentialForward.fog[16].server[0] droppedJobsTotal 1201502
scalar FogSequentialForward.fog[17].dispatcher localJobs 1579184
scalar FogSequentialForward.fog[17].dispatcher internalJobs 1624062
scalar FogSequentialForward.fog[17].dispatcher externalJobs 3822696
scalar FogSequentialForward.fog[17].dispatcher remoteJobs 3823697
scalar FogSequentialForward.fog[17].dispatcher probeQueries 0
scalar FogSequentialForward.fog[17].dispatcher probeAnswers 0
scalar FogSequentialForward.fog[17].dispatcher droppedJobsSLA 43877
scalar FogSequentialForward.fog[17].dispatcher jobs_class_1 5446758
scalar FogSequentialForward.fog[17].dispatcher remoteJobs_class_1 3823697
scalar FogSequentialForward.fog[17].dispatcher localJobs_class_1 1579184
scalar FogSequentialForward.fog[17].dispatcher droppedJobsSLA_class_1 43877
scalar FogSequentialForward.fog[17].server[0] rho 1
scalar FogSequentialForward.fog[17].server[0] congestionRatio 0
scalar FogSequentialForward.fog[17].server[0] totalJobs 1579184
scalar FogSequentialForward.fog[17].server[0] droppedJobsQueue 139018
scalar FogSequentialForward.fog[17].server[0] droppedJobsTimout 0
scalar FogSequentialForward.fog[17].server[0] droppedJobsSLA 1061744
scalar FogSequentialForward.fog[17].server[0] droppedJobsTotal 1200762
scalar FogSequentialForward.fog[18].dispatcher localJobs 1579892
scalar FogSequentialForward.fog[18].dispatcher internalJobs 1626091
scalar FogSequentialForward.fog[18].dispatcher externalJobs 3821882
scalar FogSequentialForward.fog[18].dispatcher remoteJobs 3824540
scalar FogSequentialForward.fog[18].dispatcher probeQueries 0
scalar FogSequentialForward.fog[18].dispatcher probeAnswers 0
scalar FogSequentialForward.fog[18].dispatcher droppedJobsSLA 43541
scalar FogSequentialForward.fog[18].dispatcher jobs_class_1 5447973
scalar FogSequentialForward.fog[18].dispatcher remoteJobs_class_1 3824540
scalar FogSequentialForward.fog[18].dispatcher localJobs_class_1 1579892
scalar FogSequentialForward.fog[18].dispatcher droppedJobsSLA_class_1 43541
scalar FogSequentialForward.fog[18].server[0] rho 1
scalar FogSequentialForward.fog[18].server[0] congestionRatio 0
scalar FogSequentialForward.fog[18].server[0] totalJobs 1579892
scalar FogSequentialForward.fog[18].server[0] droppedJobsQueue 139492
scalar FogSequentialForward.fog[18].server[0] droppedJobsTimout 0
scalar FogSequentialForward.fog[18].server[0] droppedJobsSLA 1061945
scalar FogSequentialForward.fog[18].server[0] droppedJobsTotal 1201437
scalar FogSequentialForward.fog[19].dispatcher localJobs 1578801
scalar FogSequentialForward.fog[19].dispatcher internalJobs 1626361
scalar FogSequentialForward.fog[19].dispatcher externalJobs 3819683
scalar FogSequentialForward.fog[19].dispatcher remoteJobs 3823540
scalar FogSequentialForward.fog[19].dispatcher probeQueries 0
scalar FogSequentialForward.fog[19].dispatcher probeAnswers 0
scalar FogSequentialForward.fog[19].dispatcher droppedJobsSLA 43703
scalar FogSequentialForward.fog[19].dispatcher jobs_class_1 5446044
scalar FogSequentialForward.fog[19].dispatcher remoteJobs_class_1 3823540
scalar FogSequentialForward.fog[19].dispatcher localJobs_class_1 1578801
scalar FogSequentialForward.fog[19].dispatcher droppedJobsSLA_class_1 43703
scalar FogSequentialForward.fog[19].server[0] rho 0.99999988079071
scalar FogSequentialForward.fog[19].server[0] congestionRatio 0
scalar FogSequentialForward.fog[19].server[0] totalJobs 1578801
scalar FogSequentialForward.fog[19].server[0] droppedJobsQueue 139082
scalar FogSequentialForward.fog[19].server[0] droppedJobsTimout 0
scalar FogSequentialForward.fog[19].server[0] droppedJobsSLA 1062360
scalar FogSequentialForward.fog[19].server[0] droppedJobsTotal 1201442
scalar FogSequentialForward.fog[20].dispatcher localJobs 1579519
scalar FogSequentialForward.fog[20].dispatcher internalJobs 1622027
scalar FogSequentialForward.fog[20].dispatcher externalJobs 3819994
scalar FogSequentialForward.fog[20].dispatcher remoteJobs 3818342
scalar FogSequentialForward.fog[20].dispatcher probeQueries 0
scalar FogSequentialForward.fog[20].dispatcher probeAnswers 0
scalar FogSequentialForward.fog[20].dispatcher droppedJobsSLA 44160
scalar FogSequentialForward.fog[20].dispatcher jobs_class_1 5442021
scalar FogSequentialForward.fog[20].dispatcher remoteJobs_class_1 3818342
scalar FogSequentialForward.fog[20].dispatcher localJobs_class_1 1579519
scalar FogSequentialForward.fog[20].dispatcher droppedJobsSLA_class_1 44160
scalar FogSequentialForward.fog[20].server[0] rho 0.99999988079071
scalar FogSequentialForward.fog[20].server[0] congestionRatio 0
scalar FogSequentialForward.fog[20].server[0] totalJobs 1579519
scalar FogSequentialForward.fog[20].server[0] droppedJobsQueue 139295
scalar FogSequentialForward.fog[20].server[0] droppedJobsTimout 0
scalar FogSequentialForward.fog[20].server[0] droppedJobsSLA 1062035
scalar FogSequentialForward.fog[20].server[0] droppedJobsTotal 1201330
scalar FogSequentialForward.fog[21].dispatcher localJobs 1579134
scalar FogSequentialForward.fog[21].dispatcher internalJobs 1623306
scalar FogSequentialForward.fog[21].dispatcher externalJobs 3821741
scalar FogSequentialForward.fog[21].dispatcher remoteJobs 3822491
scalar FogSequentialForward.fog[21].dispatcher probeQueries 0
scalar FogSequentialForward.fog[21].dispatcher probeAnswers 0
scalar FogSequentialForward.fog[21].dispatcher droppedJobsSLA 43422
scalar FogSequentialForward.fog[21].dispatcher jobs_class_1 5445047
scalar FogSequentialForward.fog[21].dispatcher remoteJobs_class_1 3822491
scalar FogSequentialForward.fog[21].dispatcher localJobs_class_1 1579134
scalar FogSequentialForward.fog[21].dispatcher droppedJobsSLA_class_1 43422
scalar FogSequentialForward.fog[21].server[0] rho 1
scalar FogSequentialForward.fog[21].server[0] congestionRatio 0
scalar FogSequentialForward.fog[21].server[0] totalJobs 1579134
scalar FogSequentialForward.fog[21].server[0] droppedJobsQueue 138673
scalar FogSequentialForward.fog[21].server[0] droppedJobsTimout 0
scalar FogSequentialForward.fog[21].server[0] droppedJobsSLA 1061754
scalar FogSequentialForward.fog[21].server[0] droppedJobsTotal 1200427
scalar FogSequentialForward.fog[22].dispatcher localJobs 1578721
scalar FogSequentialForward.fog[22].dispatcher internalJobs 1621426
scalar FogSequentialForward.fog[22].dispatcher externalJobs 3820065
scalar FogSequentialForward.fog[22].dispatcher remoteJobs 3819301
scalar FogSequentialForward.fog[22].dispatcher probeQueries 0
scalar FogSequentialForward.fog[22].dispatcher probeAnswers 0
scalar FogSequentialForward.fog[22].dispatcher droppedJobsSLA 43469
scalar FogSequentialForward.fog[22].dispatcher jobs_class_1 5441491
scalar FogSequentialForward.fog[22].dispatcher remoteJobs_class_1 3819301
scalar FogSequentialForward.fog[22].dispatcher localJobs_class_1 1578721
scalar FogSequentialForward.fog[22].dispatcher droppedJobsSLA_class_1 43469
scalar FogSequentialForward.fog[22].server[0] rho 1
scalar FogSequentialForward.fog[22].server[0] congestionRatio 0
scalar FogSequentialForward.fog[22].server[0] totalJobs 1578721
scalar FogSequentialForward.fog[22].server[0] droppedJobsQueue 138652
scalar FogSequentialForward.fog[22].server[0] droppedJobsTimout 0
scalar FogSequentialForward.fog[22].server[0] droppedJobsSLA 1061880
scalar FogSequentialForward.fog[22].server[0] droppedJobsTotal 1200532
scalar FogSequentialForward.fog[23].dispatcher localJobs 1579616
scalar FogSequentialForward.fog[23].dispatcher internalJobs 1625103
scalar FogSequentialForward.fog[23].dispatcher externalJobs 3820292
scalar FogSequentialForward.fog[23].dispatcher remoteJobs 3821749
scalar FogSequentialForward.fog[23].dispatcher probeQueries 0
scalar FogSequentialForward.fog[23].dispatcher probeAnswers 0
scalar FogSequentialForward.fog[23].dispatcher droppedJobsSLA 44030
scalar FogSequentialForward.fog[23].dispatcher jobs_class_1 5445395
scalar FogSequentialForward.fog[23].dispatcher remoteJobs_class_1 3821749
scalar FogSequentialForward.fog[23].dispatcher localJobs_class_1 1579616
scalar FogSequentialForward.fog[23].dispatcher droppedJobsSLA_class_1 44030
scalar FogSequentialForward.fog[23].server[0] rho 1
scalar FogSequentialForward.fog[23].server[0] congestionRatio 0
scalar FogSequentialForward.fog[23].server[0] totalJobs 1579616
scalar FogSequentialForward.fog[23].server[0] droppedJobsQueue 139021
scalar FogSequentialForward.fog[23].server[0] droppedJobsTimout 0
scalar FogSequentialForward.fog[23].server[0] droppedJobsSLA 1061622
scalar FogSequentialForward.fog[23].server[0] droppedJobsTotal 1200643
scalar FogSequentialForward.fog[24].dispatcher localJobs 1579635
scalar FogSequentialForward.fog[24].dispatcher internalJobs 1622665
scalar FogSequentialForward.fog[24].dispatcher externalJobs 3820655
scalar FogSequentialForward.fog[24].dispatcher remoteJobs 3819860
scalar FogSequentialForward.fog[24].dispatcher probeQueries 0
scalar FogSequentialForward.fog[24].dispatcher probeAnswers 0
scalar FogSequentialForward.fog[24].dispatcher droppedJobsSLA 43825
scalar FogSequentialForward.fog[24].dispatcher jobs_class_1 5443320
scalar FogSequentialForward.fog[24].dispatcher remoteJobs_class_1 3819860
scalar FogSequentialForward.fog[24].dispatcher localJobs_class_1 1579635
scalar FogSequentialForward.fog[24].dispatcher droppedJobsSLA_class_1 43825
scalar FogSequentialForward.fog[24].server[0] rho 1
scalar FogSequentialForward.fog[24].server[0] congestionRatio 0
scalar FogSequentialForward.fog[24].server[0] totalJobs 1579635
scalar FogSequentialForward.fog[24].server[0] droppedJobsQueue 139032
scalar FogSequentialForward.fog[24].server[0] droppedJobsTimout 0
scalar FogSequentialForward.fog[24].server[0] droppedJobsSLA 1062598
scalar FogSequentialForward.fog[24].server[0] droppedJobsTotal 1201630
scalar FogSequentialForward.fog[25].dispatcher localJobs 1579747
scalar FogSequentialForward.fog[25].dispatcher internalJobs 1620361
scalar FogSequentialForward.fog[25].dispatcher externalJobs 3820743
scalar FogSequentialForward.fog[25].dispatcher remoteJobs 3817457
scalar FogSequentialForward.fog[25].dispatcher probeQueries 0
scalar FogSequentialForward.fog[25].dispatcher probeAnswers 0
scalar FogSequentialForward.fog[25].dispatcher droppedJobsSLA 43900
scalar FogSequentialForward.fog[25].dispatcher jobs_class_1 5441104
scalar FogSequentialForward.fog[25].dispatcher remoteJobs_class_1 3817457
scalar FogSequentialForward.fog[25].dispatcher localJobs_class_1 1579747
scalar FogSequentialForward.fog[25].dispatcher droppedJobsSLA_class_1 43900
scalar FogSequentialForward.fog[25].server[0] rho 1
scalar FogSequentialForward.fog[25].server[0] congestionRatio 0
scalar FogSequentialForward.fog[25].server[0] totalJobs 1579747
scalar FogSequentialForward.fog[25].server[0] droppedJobsQueue 139265
scalar FogSequentialForward.fog[25].server[0] droppedJobsTimout 0
scalar FogSequentialForward.fog[25].server[0] droppedJobsSLA 1062108
scalar FogSequentialForward.fog[25].server[0] droppedJobsTotal 1201373
scalar FogSequentialForward.fog[26].dispatcher localJobs 1579241
scalar FogSequentialForward.fog[26].dispatcher internalJobs 1624964
scalar FogSequentialForward.fog[26].dispatcher externalJobs 3818637
scalar FogSequentialForward.fog[26].dispatcher remoteJobs 3820737
scalar FogSequentialForward.fog[26].dispatcher probeQueries 0
scalar FogSequentialForward.fog[26].dispatcher probeAnswers 0
scalar FogSequentialForward.fog[26].dispatcher droppedJobsSLA 43623
scalar FogSequentialForward.fog[26].dispatcher jobs_class_1 5443601
scalar FogSequentialForward.fog[26].dispatcher remoteJobs_class_1 3820737
scalar FogSequentialForward.fog[26].dispatcher localJobs_class_1 1579241
scalar FogSequentialForward.fog[26].dispatcher droppedJobsSLA_class_1 43623
scalar FogSequentialForward.fog[26].server[0] rho 1
scalar FogSequentialForward.fog[26].server[0] congestionRatio 0
scalar FogSequentialForward.fog[26].server[0] totalJobs 1579241
scalar FogSequentialForward.fog[26].server[0] droppedJobsQueue 139151
scalar FogSequentialForward.fog[26].server[0] droppedJobsTimout 0
scalar FogSequentialForward.fog[26].server[0] droppedJobsSLA 1061513
scalar FogSequentialForward.fog[26].server[0] droppedJobsTotal 1200664
scalar FogSequentialForward.fog[27].dispatcher localJobs 1579764
scalar FogSequentialForward.fog[27].dispatcher internalJobs 1622363
scalar FogSequentialForward.fog[27].dispatcher externalJobs 3818079
scalar FogSequentialForward.fog[27].dispatcher remoteJobs 3816801
scalar FogSequentialForward.fog[27].dispatcher probeQueries 0
scalar FogSequentialForward.fog[27].dispatcher probeAnswers 0
scalar FogSequentialForward.fog[27].dispatcher droppedJobsSLA 43877
scalar FogSequentialForward.fog[27].dispatcher jobs_class_1 5440442
scalar FogSequentialForward.fog[27].dispatcher remoteJobs_class_1 3816801
scalar FogSequentialForward.fog[27].dispatcher localJobs_class_1 1579764
scalar FogSequentialForward.fog[27].dispatcher droppedJobsSLA_class_1 43877
scalar FogSequentialForward.fog[27].server[0] rho 1
scalar FogSequentialForward.fog[27].server[0] congestionRatio 0
scalar FogSequentialForward.fog[27].server[0] totalJobs 1579764
scalar FogSequentialForward.fog[27].server[0] droppedJobsQueue 139255
scalar FogSequentialForward.fog[27].server[0] droppedJobsTimout 0
scalar FogSequentialForward.fog[27].server[0] droppedJobsSLA 1062239
scalar FogSequentialForward.fog[27].server[0] droppedJobsTotal 1201494
scalar FogSequentialForward.fog[28].dispatcher localJobs 1579093
scalar FogSequentialForward.fog[28].dispatcher internalJobs 1622019
scalar FogSequentialForward.fog[28].dispatcher externalJobs 3819299
scalar FogSequentialForward.fog[28].dispatcher remoteJobs 3818400
scalar FogSequentialForward.fog[28].dispatcher probeQueries 0
scalar FogSequentialForward.fog[28].dispatcher probeAnswers 0
scalar FogSequentialForward.fog[28].dispatcher droppedJobsSLA 43825
scalar FogSequentialForward.fog[28].dispatcher jobs_class_1 5441318
scalar FogSequentialForward.fog[28].dispatcher remoteJobs_class_1 3818400
scalar FogSequentialForward.fog[28].dispatcher localJobs_class_1 1579093
scalar FogSequentialForward.fog[28].dispatcher droppedJobsSLA_class_1 43825
scalar FogSequentialForward.fog[28].server[0] rho 1
scalar FogSequentialForward.fog[28].server[0] congestionRatio 0
scalar FogSequentialForward.fog[28].server[0] totalJobs 1579093
scalar FogSequentialForward.fog[28].server[0] droppedJobsQueue 138934
scalar FogSequentialForward.fog[28].server[0] droppedJobsTimout 0
scalar FogSequentialForward.fog[28].server[0] droppedJobsSLA 1062039
scalar FogSequentialForward.fog[28].server[0] droppedJobsTotal 1200973
scalar FogSequentialForward.fog[29].dispatcher localJobs 1580013
scalar FogSequentialForward.fog[29].dispatcher internalJobs 1621347
scalar FogSequentialForward.fog[29].dispatcher externalJobs 3821504
scalar FogSequentialForward.fog[29].dispatcher remoteJobs 3819015
scalar FogSequentialForward.fog[29].dispatcher probeQueries 0
scalar FogSequentialForward.fog[29].dispatcher probeAnswers 0
scalar FogSequentialForward.fog[29].dispatcher droppedJobsSLA 43823
scalar FogSequentialForward.fog[29].dispatcher jobs_class_1 5442851
scalar FogSequentialForward.fog[29].dispatcher remoteJobs_class_1 3819015
scalar FogSequentialForward.fog[29].dispatcher localJobs_class_1 1580013
scalar FogSequentialForward.fog[29].dispatcher droppedJobsSLA_class_1 43823
scalar FogSequentialForward.fog[29].server[0] rho 1
scalar FogSequentialForward.fog[29].server[0] congestionRatio 0
scalar FogSequentialForward.fog[29].server[0] totalJobs 1580013
scalar FogSequentialForward.fog[29].server[0] droppedJobsQueue 139314
scalar FogSequentialForward.fog[29].server[0] droppedJobsTimout 0
scalar FogSequentialForward.fog[29].server[0] droppedJobsSLA 1061986
scalar FogSequentialForward.fog[29].server[0] droppedJobsTotal 1201300
scalar FogSequentialForward.fog[30].dispatcher localJobs 1579692
scalar FogSequentialForward.fog[30].dispatcher internalJobs 1622213
scalar FogSequentialForward.fog[30].dispatcher externalJobs 3822511
scalar FogSequentialForward.fog[30].dispatcher remoteJobs 3821336
scalar FogSequentialForward.fog[30].dispatcher probeQueries 0
scalar FogSequentialForward.fog[30].dispatcher probeAnswers 0
scalar FogSequentialForward.fog[30].dispatcher droppedJobsSLA 43696
scalar FogSequentialForward.fog[30].dispatcher jobs_class_1 5444724
scalar FogSequentialForward.fog[30].dispatcher remoteJobs_class_1 3821336
scalar FogSequentialForward.fog[30].dispatcher localJobs_class_1 1579692
scalar FogSequentialForward.fog[30].dispatcher droppedJobsSLA_class_1 43696
scalar FogSequentialForward.fog[30].server[0] rho 1
scalar FogSequentialForward.fog[30].server[0] congestionRatio 0
scalar FogSequentialForward.fog[30].server[0] totalJobs 1579692
scalar FogSequentialForward.fog[30].server[0] droppedJobsQueue 139332
scalar FogSequentialForward.fog[30].server[0] droppedJobsTimout 0
scalar FogSequentialForward.fog[30].server[0] droppedJobsSLA 1062329
scalar FogSequentialForward.fog[30].server[0] droppedJobsTotal 1201661
scalar FogSequentialForward.fog[31].dispatcher localJobs 1579068
scalar FogSequentialForward.fog[31].dispatcher internalJobs 1623263
scalar FogSequentialForward.fog[31].dispatcher externalJobs 3821173
scalar FogSequentialForward.fog[31].dispatcher remoteJobs 3821395
scalar FogSequentialForward.fog[31].dispatcher probeQueries 0
scalar FogSequentialForward.fog[31].dispatcher probeAnswers 0
scalar FogSequentialForward.fog[31].dispatcher droppedJobsSLA 43973
scalar FogSequentialForward.fog[31].dispatcher jobs_class_1 5444436
scalar FogSequentialForward.fog[31].dispatcher remoteJobs_class_1 3821395
scalar FogSequentialForward.fog[31].dispatcher localJobs_class_1 1579068
scalar FogSequentialForward.fog[31].dispatcher droppedJobsSLA_class_1 43973
scalar FogSequentialForward.fog[31].server[0] rho 1
scalar FogSequentialForward.fog[31].server[0] congestionRatio 0
scalar FogSequentialForward.fog[31].server[0] totalJobs 1579068
scalar FogSequentialForward.fog[31].server[0] droppedJobsQueue 139147
scalar FogSequentialForward.fog[31].server[0] droppedJobsTimout 0
scalar FogSequentialForward.fog[31].server[0] droppedJobsSLA 1061438
scalar FogSequentialForward.fog[31].server[0] droppedJobsTotal 1200585
scalar FogSequentialForward.fog[32].dispatcher localJobs 1579080
scalar FogSequentialForward.fog[32].dispatcher internalJobs 1623407
scalar FogSequentialForward.fog[32].dispatcher externalJobs 3820442
scalar FogSequentialForward.fog[32].dispatcher remoteJobs 3821194
scalar FogSequentialForward.fog[32].dispatcher probeQueries 0
scalar FogSequentialForward.fog[32].dispatcher probeAnswers 0
scalar FogSequentialForward.fog[32].dispatcher droppedJobsSLA 43575
scalar FogSequentialForward.fog[32].dispatcher jobs_class_1 5443849
scalar FogSequentialForward.fog[32].dispatcher remoteJobs_class_1 3821194
scalar FogSequentialForward.fog[32].dispatcher localJobs_class_1 1579080
scalar FogSequentialForward.fog[32].dispatcher droppedJobsSLA_class_1 43575
scalar FogSequentialForward.fog[32].server[0] rho 1
scalar FogSequentialForward.fog[32].server[0] congestionRatio 0
scalar FogSequentialForward.fog[32].server[0] totalJobs 1579080
scalar FogSequentialForward.fog[32].server[0] droppedJobsQueue 139051
scalar FogSequentialForward.fog[32].server[0] droppedJobsTimout 0
scalar FogSequentialForward.fog[32].server[0] droppedJobsSLA 1062176
scalar FogSequentialForward.fog[32].server[0] droppedJobsTotal 1201227
scalar FogSequentialForward.fog[33].dispatcher localJobs 1579381
scalar FogSequentialForward.fog[33].dispatcher internalJobs 1623895
scalar FogSequentialForward.fog[33].dispatcher externalJobs 3820449
scalar FogSequentialForward.fog[33].dispatcher remoteJobs 3821190
scalar FogSequentialForward.fog[33].dispatcher probeQueries 0
scalar FogSequentialForward.fog[33].dispatcher probeAnswers 0
scalar FogSequentialForward.fog[33].dispatcher droppedJobsSLA 43773
scalar FogSequentialForward.fog[33].dispatcher jobs_class_1 5444344
scalar FogSequentialForward.fog[33].dispatcher remoteJobs_class_1 3821190
scalar FogSequentialForward.fog[33].dispatcher localJobs_class_1 1579381
scalar FogSequentialForward.fog[33].dispatcher droppedJobsSLA_class_1 43773
scalar FogSequentialForward.fog[33].server[0] rho 0.99999994039536
scalar FogSequentialForward.fog[33].server[0] congestionRatio 0
scalar FogSequentialForward.fog[33].server[0] totalJobs 1579381
scalar FogSequentialForward.fog[33].server[0] droppedJobsQueue 138917
scalar FogSequentialForward.fog[33].server[0] droppedJobsTimout 0
scalar FogSequentialForward.fog[33].server[0] droppedJobsSLA 1062229
scalar FogSequentialForward.fog[33].server[0] droppedJobsTotal 1201146
scalar FogSequentialForward.fog[34].dispatcher localJobs 1579219
scalar FogSequentialForward.fog[34].dispatcher internalJobs 1623221
scalar FogSequentialForward.fog[34].dispatcher externalJobs 3823316
scalar FogSequentialForward.fog[34].dispatcher remoteJobs 3823581
scalar FogSequentialForward.fog[34].dispatcher probeQueries 0
scalar FogSequentialForward.fog[34].dispatcher probeAnswers 0
scalar FogSequentialForward.fog[34].dispatcher droppedJobsSLA 43737
scalar FogSequentialForward.fog[34].dispatcher jobs_class_1 5446537
scalar FogSequentialForward.fog[34].dispatcher remoteJobs_class_1 3823581
scalar FogSequentialForward.fog[34].dispatcher localJobs_class_1 1579219
scalar FogSequentialForward.fog[34].dispatcher droppedJobsSLA_class_1 43737
scalar FogSequentialForward.fog[34].server[0] rho 1
scalar FogSequentialForward.fog[34].server[0] congestionRatio 0
scalar FogSequentialForward.fog[34].server[0] totalJobs 1579219
scalar FogSequentialForward.fog[34].server[0] droppedJobsQueue 139223
scalar FogSequentialForward.fog[34].server[0] droppedJobsTimout 0
scalar FogSequentialForward.fog[34].server[0] droppedJobsSLA 1061038
scalar FogSequentialForward.fog[34].server[0] droppedJobsTotal 1200261
scalar FogSequentialForward.fog[35].dispatcher localJobs 1579971
scalar FogSequentialForward.fog[35].dispatcher internalJobs 1620968
scalar FogSequentialForward.fog[35].dispatcher externalJobs 3822234
scalar FogSequentialForward.fog[35].dispatcher remoteJobs 3819534
scalar FogSequentialForward.fog[35].dispatcher probeQueries 0
scalar FogSequentialForward.fog[35].dispatcher probeAnswers 0
scalar FogSequentialForward.fog[35].dispatcher droppedJobsSLA 43697
scalar FogSequentialForward.fog[35].dispatcher jobs_class_1 5443202
scalar FogSequentialForward.fog[35].dispatcher remoteJobs_class_1 3819534
scalar FogSequentialForward.fog[35].dispatcher localJobs_class_1 1579971
scalar FogSequentialForward.fog[35].dispatcher droppedJobsSLA_class_1 43697
scalar FogSequentialForward.fog[35].server[0] rho 1
scalar FogSequentialForward.fog[35].server[0] congestionRatio 0
scalar FogSequentialForward.fog[35].server[0] totalJobs 1579971
scalar FogSequentialForward.fog[35].server[0] droppedJobsQueue 139410
scalar FogSequentialForward.fog[35].server[0] droppedJobsTimout 0
scalar FogSequentialForward.fog[35].server[0] droppedJobsSLA 1062206
scalar FogSequentialForward.fog[35].server[0] droppedJobsTotal 1201616
scalar FogSequentialForward.fog[36].dispatcher localJobs 1578796
scalar FogSequentialForward.fog[36].dispatcher internalJobs 1625680
scalar FogSequentialForward.fog[36].dispatcher externalJobs 3817800
scalar FogSequentialForward.fog[36].dispatcher remoteJobs 3820917
scalar FogSequentialForward.fog[36].dispatcher probeQueries 0
scalar FogSequentialForward.fog[36].dispatcher probeAnswers 0
scalar FogSequentialForward.fog[36].dispatcher droppedJobsSLA 43767
scalar FogSequentialForward.fog[36].dispatcher jobs_class_1 5443480
scalar FogSequentialForward.fog[36].dispatcher remoteJobs_class_1 3820917
scalar FogSequentialForward.fog[36].dispatcher localJobs_class_1 1578796
scalar FogSequentialForward.fog[36].dispatcher droppedJobsSLA_class_1 43767
scalar FogSequentialForward.fog[36].server[0] rho 1
scalar FogSequentialForward.fog[36].server[0] congestionRatio 0
scalar FogSequentialForward.fog[36].server[0] totalJobs 1578796
scalar FogSequentialForward.fog[36].server[0] droppedJobsQueue 138720
scalar FogSequentialForward.fog[36].server[0] droppedJobsTimout 0
scalar FogSequentialForward.fog[36].server[0] droppedJobsSLA 1061985
scalar FogSequentialForward.fog[36].server[0] droppedJobsTotal 1200705
scalar FogSequentialForward.fog[37].dispatcher localJobs 1579353
scalar FogSequentialForward.fog[37].dispatcher internalJobs 1625826
scalar FogSequentialForward.fog[37].dispatcher externalJobs 3819884
scalar FogSequentialForward.fog[37].dispatcher remoteJobs 3822565
scalar FogSequentialForward.fog[37].dispatcher probeQueries 0
scalar FogSequentialForward.fog[37].dispatcher probeAnswers 0
scalar FogSequentialForward.fog[37].dispatcher droppedJobsSLA 43792
scalar FogSequentialForward.fog[37].dispatcher jobs_class_1 5445710
scalar FogSequentialForward.fog[37].dispatcher remoteJobs_class_1 3822565
scalar FogSequentialForward.fog[37].dispatcher localJobs_class_1 1579353
scalar FogSequentialForward.fog[37].dispatcher droppedJobsSLA_class_1 43792
scalar FogSequentialForward.fog[37].server[0] rho 0.99999976158142
scalar FogSequentialForward.fog[37].server[0] congestionRatio 0
scalar FogSequentialForward.fog[37].server[0] totalJobs 1579353
scalar FogSequentialForward.fog[37].server[0] droppedJobsQueue 139220
scalar FogSequentialForward.fog[37].server[0] droppedJobsTimout 0
scalar FogSequentialForward.fog[37].server[0] droppedJobsSLA 1061481
scalar FogSequentialForward.fog[37].server[0] droppedJobsTotal 1200701
scalar FogSequentialForward.fog[38].dispatcher localJobs 1578958
scalar FogSequentialForward.fog[38].dispatcher internalJobs 1621985
scalar FogSequentialForward.fog[38].dispatcher externalJobs 3821593
scalar FogSequentialForward.fog[38].dispatcher remoteJobs 3820719
scalar FogSequentialForward.fog[38].dispatcher probeQueries 0
scalar FogSequentialForward.fog[38].dispatcher probeAnswers 0
scalar FogSequentialForward.fog[38].dispatcher droppedJobsSLA 43901
scalar FogSequentialForward.fog[38].dispatcher jobs_class_1 5443578
scalar FogSequentialForward.fog[38].dispatcher remoteJobs_class_1 3820719
scalar FogSequentialForward.fog[38].dispatcher localJobs_class_1 1578958
scalar FogSequentialForward.fog[38].dispatcher droppedJobsSLA_class_1 43901
scalar FogSequentialForward.fog[38].server[0] rho 1
scalar FogSequentialForward.fog[38].server[0] congestionRatio 0
scalar FogSequentialForward.fog[38].server[0] totalJobs 1578958
scalar FogSequentialForward.fog[38].server[0] droppedJobsQueue 138932
scalar FogSequentialForward.fog[38].server[0] droppedJobsTimout 0
scalar FogSequentialForward.fog[38].server[0] droppedJobsSLA 1061826
scalar FogSequentialForward.fog[38].server[0] droppedJobsTotal 1200758
scalar FogSequentialForward.fog[39].dispatcher localJobs 1579312
scalar FogSequentialForward.fog[39].dispatcher internalJobs 1622653
scalar FogSequentialForward.fog[39].dispatcher externalJobs 3819429
scalar FogSequentialForward.fog[39].dispatcher remoteJobs 3818897
scalar FogSequentialForward.fog[39].dispatcher probeQueries 0
scalar FogSequentialForward.fog[39].dispatcher probeAnswers 0
scalar FogSequentialForward.fog[39].dispatcher droppedJobsSLA 43873
scalar FogSequentialForward.fog[39].dispatcher jobs_class_1 5442082
scalar FogSequentialForward.fog[39].dispatcher remoteJobs_class_1 3818897
scalar FogSequentialForward.fog[39].dispatcher localJobs_class_1 1579312
scalar FogSequentialForward.fog[39].dispatcher droppedJobsSLA_class_1 43873
scalar FogSequentialForward.fog[39].server[0] rho 1
scalar FogSequentialForward.fog[39].server[0] congestionRatio 0
scalar FogSequentialForward.fog[39].server[0] totalJobs 1579312
scalar FogSequentialForward.fog[39].server[0] droppedJobsQueue 138895
scalar FogSequentialForward.fog[39].server[0] droppedJobsTimout 0
scalar FogSequentialForward.fog[39].server[0] droppedJobsSLA 1061961
scalar FogSequentialForward.fog[39].server[0] droppedJobsTotal 1200856
scalar FogSequentialForward.fog[40].dispatcher localJobs 1579724
scalar FogSequentialForward.fog[40].dispatcher internalJobs 1623276
scalar FogSequentialForward.fog[40].dispatcher externalJobs 3823830
scalar FogSequentialForward.fog[40].dispatcher remoteJobs 3823553
scalar FogSequentialForward.fog[40].dispatcher probeQueries 0
scalar FogSequentialForward.fog[40].dispatcher probeAnswers 0
scalar FogSequentialForward.fog[40].dispatcher droppedJobsSLA 43829
scalar FogSequentialForward.fog[40].dispatcher jobs_class_1 5447106
scalar FogSequentialForward.fog[40].dispatcher remoteJobs_class_1 3823553
scalar FogSequentialForward.fog[40].dispatcher localJobs_class_1 1579724
scalar FogSequentialForward.fog[40].dispatcher droppedJobsSLA_class_1 43829
scalar FogSequentialForward.fog[40].server[0] rho 1
scalar FogSequentialForward.fog[40].server[0] congestionRatio 0
scalar FogSequentialForward.fog[40].server[0] totalJobs 1579724
scalar FogSequentialForward.fog[40].server[0] droppedJobsQueue 139155
scalar FogSequentialForward.fog[40].server[0] droppedJobsTimout 0
scalar FogSequentialForward.fog[40].server[0] droppedJobsSLA 1062295
scalar FogSequentialForward.fog[40].server[0] droppedJobsTotal 1201450
scalar FogSequentialForward.fog[41].dispatcher localJobs 1579501
scalar FogSequentialForward.fog[41].dispatcher internalJobs 1624881
scalar FogSequentialForward.fog[41].dispatcher externalJobs 3822577
scalar FogSequentialForward.fog[41].dispatcher remoteJobs 3823859
scalar FogSequentialForward.fog[41].dispatcher probeQueries 0
scalar FogSequentialForward.fog[41].dispatcher probeAnswers 0
scalar FogSequentialForward.fog[41].dispatcher droppedJobsSLA 44098
scalar FogSequentialForward.fog[41].dispatcher jobs_class_1 5447458
scalar FogSequentialForward.fog[41].dispatcher remoteJobs_class_1 3823859
scalar FogSequentialForward.fog[41].dispatcher localJobs_class_1 1579501
scalar FogSequentialForward.fog[41].dispatcher droppedJobsSLA_class_1 44098
scalar FogSequentialForward.fog[41].server[0] rho 1
scalar FogSequentialForward.fog[41].server[0] congestionRatio 0
scalar FogSequentialForward.fog[41].server[0] totalJobs 1579501
scalar FogSequentialForward.fog[41].server[0] droppedJobsQueue 139433
scalar FogSequentialForward.fog[41].server[0] droppedJobsTimout 0
scalar FogSequentialForward.fog[41].server[0] droppedJobsSLA 1061948
scalar FogSequentialForward.fog[41].server[0] droppedJobsTotal 1201381
scalar FogSequentialForward.fog[42].dispatcher localJobs 1579584
scalar FogSequentialForward.fog[42].dispatcher internalJobs 1622975
scalar FogSequentialForward.fog[42].dispatcher externalJobs 3819172
scalar FogSequentialForward.fog[42].dispatcher remoteJobs 3818837
scalar FogSequentialForward.fog[42].dispatcher probeQueries 0
scalar FogSequentialForward.fog[42].dispatcher probeAnswers 0
scalar FogSequentialForward.fog[42].dispatcher droppedJobsSLA 43726
scalar FogSequentialForward.fog[42].dispatcher jobs_class_1 5442147
scalar FogSequentialForward.fog[42].dispatcher remoteJobs_class_1 3818837
scalar FogSequentialForward.fog[42].dispatcher localJobs_class_1 1579584
scalar FogSequentialForward.fog[42].dispatcher droppedJobsSLA_class_1 43726
scalar FogSequentialForward.fog[42].server[0] rho 1
scalar FogSequentialForward.fog[42].server[0] congestionRatio 0
scalar FogSequentialForward.fog[42].server[0] totalJobs 1579584
scalar FogSequentialForward.fog[42].server[0] droppedJobsQueue 139285
scalar FogSequentialForward.fog[42].server[0] droppedJobsTimout 0
scalar FogSequentialForward.fog[42].server[0] droppedJobsSLA 1061913
scalar FogSequentialForward.fog[42].server[0] droppedJobsTotal 1201198
scalar FogSequentialForward.fog[43].dispatcher localJobs 1579364
scalar FogSequentialForward.fog[43].dispatcher internalJobs 1625541
scalar FogSequentialForward.fog[43].dispatcher externalJobs 3820994
scalar FogSequentialForward.fog[43].dispatcher remoteJobs 3823451
scalar FogSequentialForward.fog[43].dispatcher probeQueries 0
scalar FogSequentialForward.fog[43].dispatcher probeAnswers 0
scalar FogSequentialForward.fog[43].dispatcher droppedJobsSLA 43720
scalar FogSequentialForward.fog[43].dispatcher jobs_class_1 5446535
scalar FogSequentialForward.fog[43].dispatcher remoteJobs_class_1 3823451
scalar FogSequentialForward.fog[43].dispatcher localJobs_class_1 1579364
scalar FogSequentialForward.fog[43].dispatcher droppedJobsSLA_class_1 43720
scalar FogSequentialForward.fog[43].server[0] rho 1
scalar FogSequentialForward.fog[43].server[0] congestionRatio 0
scalar FogSequentialForward.fog[43].server[0] totalJobs 1579364
scalar FogSequentialForward.fog[43].server[0] droppedJobsQueue 138904
scalar FogSequentialForward.fog[43].server[0] droppedJobsTimout 0
scalar FogSequentialForward.fog[43].server[0] droppedJobsSLA 1062202
scalar FogSequentialForward.fog[43].server[0] droppedJobsTotal 1201106
scalar FogSequentialForward.fog[44].dispatcher localJobs 1580159
scalar FogSequentialForward.fog[44].dispatcher internalJobs 1625018
scalar FogSequentialForward.fog[44].dispatcher externalJobs 3822343
scalar FogSequentialForward.fog[44].dispatcher remoteJobs 3823634
scalar FogSequentialForward.fog[44].dispatcher probeQueries 0
scalar FogSequentialForward.fog[44].dispatcher probeAnswers 0
scalar FogSequentialForward.fog[44].dispatcher droppedJobsSLA 43568
scalar FogSequentialForward.fog[44].dispatcher jobs_class_1 5447361
scalar FogSequentialForward.fog[44].dispatcher remoteJobs_class_1 3823634
scalar FogSequentialForward.fog[44].dispatcher localJobs_class_1 1580159
scalar FogSequentialForward.fog[44].dispatcher droppedJobsSLA_class_1 43568
scalar FogSequentialForward.fog[44].server[0] rho 1
scalar FogSequentialForward.fog[44].server[0] congestionRatio 0
scalar FogSequentialForward.fog[44].server[0] totalJobs 1580159
scalar FogSequentialForward.fog[44].server[0] droppedJobsQueue 139709
scalar FogSequentialForward.fog[44].server[0] droppedJobsTimout 0
scalar FogSequentialForward.fog[44].server[0] droppedJobsSLA 1062178
scalar FogSequentialForward.fog[44].server[0] droppedJobsTotal 1201887
scalar FogSequentialForward.fog[45].dispatcher localJobs 1580344
scalar FogSequentialForward.fog[45].dispatcher internalJobs 1623403
scalar FogSequentialForward.fog[45].dispatcher externalJobs 3822274
scalar FogSequentialForward.fog[45].dispatcher remoteJobs 3821605
scalar FogSequentialForward.fog[45].dispatcher probeQueries 0
scalar FogSequentialForward.fog[45].dispatcher probeAnswers 0
scalar FogSequentialForward.fog[45].dispatcher droppedJobsSLA 43728
scalar FogSequentialForward.fog[45].dispatcher jobs_class_1 5445677
scalar FogSequentialForward.fog[45].dispatcher remoteJobs_class_1 3821605
scalar FogSequentialForward.fog[45].dispatcher localJobs_class_1 1580344
scalar FogSequentialForward.fog[45].dispatcher droppedJobsSLA_class_1 43728
scalar FogSequentialForward.fog[45].server[0] rho 1
scalar FogSequentialForward.fog[45].server[0] congestionRatio 0
scalar FogSequentialForward.fog[45].server[0] totalJobs 1580344
scalar FogSequentialForward.fog[45].server[0] droppedJobsQueue 139369
scalar FogSequentialForward.fog[45].server[0] droppedJobsTimout 0
scalar FogSequentialForward.fog[45].server[0] droppedJobsSLA 1062126
scalar FogSequentialForward.fog[45].server[0] droppedJobsTotal 1201495
scalar FogSequentialForward.fog[46].dispatcher localJobs 1578733
scalar FogSequentialForward.fog[46].dispatcher internalJobs 1620064
scalar FogSequentialForward.fog[46].dispatcher externalJobs 3817112
scalar FogSequentialForward.fog[46].dispatcher remoteJobs 3814505
scalar FogSequentialForward.fog[46].dispatcher probeQueries 0
scalar FogSequentialForward.fog[46].dispatcher probeAnswers 0
scalar FogSequentialForward.fog[46].dispatcher droppedJobsSLA 43938
scalar FogSequentialForward.fog[46].dispatcher jobs_class_1 5437176
scalar FogSequentialForward.fog[46].dispatcher remoteJobs_class_1 3814505
scalar FogSequentialForward.fog[46].dispatcher localJobs_class_1 1578733
scalar FogSequentialForward.fog[46].dispatcher droppedJobsSLA_class_1 43938
scalar FogSequentialForward.fog[46].server[0] rho 1
scalar FogSequentialForward.fog[46].server[0] congestionRatio 0
scalar FogSequentialForward.fog[46].server[0] totalJobs 1578733
scalar FogSequentialForward.fog[46].server[0] droppedJobsQueue 138715
scalar FogSequentialForward.fog[46].server[0] droppedJobsTimout 0
scalar FogSequentialForward.fog[46].server[0] droppedJobsSLA 1062149
scalar FogSequentialForward.fog[46].server[0] droppedJobsTotal 1200864
scalar FogSequentialForward.fog[47].dispatcher localJobs 1578852
scalar FogSequentialForward.fog[47].dispatcher internalJobs 1621529
scalar FogSequentialForward.fog[47].dispatcher externalJobs 3819145
scalar FogSequentialForward.fog[47].dispatcher remoteJobs 3818120
scalar FogSequentialForward.fog[47].dispatcher probeQueries 0
scalar FogSequentialForward.fog[47].dispatcher probeAnswers 0
scalar FogSequentialForward.fog[47].dispatcher droppedJobsSLA 43702
scalar FogSequentialForward.fog[47].dispatcher jobs_class_1 5440674
scalar FogSequentialForward.fog[47].dispatcher remoteJobs_class_1 3818120
scalar FogSequentialForward.fog[47].dispatcher localJobs_class_1 1578852
scalar FogSequentialForward.fog[47].dispatcher droppedJobsSLA_class_1 43702
scalar FogSequentialForward.fog[47].server[0] rho 1
scalar FogSequentialForward.fog[47].server[0] congestionRatio 0
scalar FogSequentialForward.fog[47].server[0] totalJobs 1578852
scalar FogSequentialForward.fog[47].server[0] droppedJobsQueue 138838
scalar FogSequentialForward.fog[47].server[0] droppedJobsTimout 0
scalar FogSequentialForward.fog[47].server[0] droppedJobsSLA 1062116
scalar FogSequentialForward.fog[47].server[0] droppedJobsTotal 1200954
scalar FogSequentialForward.fog[48].dispatcher localJobs 1579559
scalar FogSequentialForward.fog[48].dispatcher internalJobs 1622285
scalar FogSequentialForward.fog[48].dispatcher externalJobs 3822172
scalar FogSequentialForward.fog[48].dispatcher remoteJobs 3821353
scalar FogSequentialForward.fog[48].dispatcher probeQueries 0
scalar FogSequentialForward.fog[48].dispatcher probeAnswers 0
scalar FogSequentialForward.fog[48].dispatcher droppedJobsSLA 43545
scalar FogSequentialForward.fog[48].dispatcher jobs_class_1 5444457
scalar FogSequentialForward.fog[48].dispatcher remoteJobs_class_1 3821353
scalar FogSequentialForward.fog[48].dispatcher localJobs_class_1 1579559
scalar FogSequentialForward.fog[48].dispatcher droppedJobsSLA_class_1 43545
scalar FogSequentialForward.fog[48].server[0] rho 1
scalar FogSequentialForward.fog[48].server[0] congestionRatio 0
scalar FogSequentialForward.fog[48].server[0] totalJobs 1579559
scalar FogSequentialForward.fog[48].server[0] droppedJobsQueue 139304
scalar FogSequentialForward.fog[48].server[0] droppedJobsTimout 0
scalar FogSequentialForward.fog[48].server[0] droppedJobsSLA 1062265
scalar FogSequentialForward.fog[48].server[0] droppedJobsTotal 1201569
scalar FogSequentialForward.fog[49].dispatcher localJobs 1579369
scalar FogSequentialForward.fog[49].dispatcher internalJobs 1622129
scalar FogSequentialForward.fog[49].dispatcher externalJobs 3817507
scalar FogSequentialForward.fog[49].dispatcher remoteJobs 3816749
scalar FogSequentialForward.fog[49].dispatcher probeQueries 0
scalar FogSequentialForward.fog[49].dispatcher probeAnswers 0
scalar FogSequentialForward.fog[49].dispatcher droppedJobsSLA 43518
scalar FogSequentialForward.fog[49].dispatcher jobs_class_1 5439636
scalar FogSequentialForward.fog[49].dispatcher remoteJobs_class_1 3816749
scalar FogSequentialForward.fog[49].dispatcher localJobs_class_1 1579369
scalar FogSequentialForward.fog[49].dispatcher droppedJobsSLA_class_1 43518
scalar FogSequentialForward.fog[49].server[0] rho 0.99999976158142
scalar FogSequentialForward.fog[49].server[0] congestionRatio 0
scalar FogSequentialForward.fog[49].server[0] totalJobs 1579369
scalar FogSequentialForward.fog[49].server[0] droppedJobsQueue 139006
scalar FogSequentialForward.fog[49].server[0] droppedJobsTimout 0
scalar FogSequentialForward.fog[49].server[0] droppedJobsSLA 1062244
scalar FogSequentialForward.fog[49].server[0] droppedJobsTotal 1201250
scalar FogSequentialForward.fog[50].dispatcher localJobs 1579075
scalar FogSequentialForward.fog[50].dispatcher internalJobs 1622701
scalar FogSequentialForward.fog[50].dispatcher externalJobs 3822908
scalar FogSequentialForward.fog[50].dispatcher remoteJobs 3822729
scalar FogSequentialForward.fog[50].dispatcher probeQueries 0
scalar FogSequentialForward.fog[50].dispatcher probeAnswers 0
scalar FogSequentialForward.fog[50].dispatcher droppedJobsSLA 43805
scalar FogSequentialForward.fog[50].dispatcher jobs_class_1 5445609
scalar FogSequentialForward.fog[50].dispatcher remoteJobs_class_1 3822729
scalar FogSequentialForward.fog[50].dispatcher localJobs_class_1 1579075
scalar FogSequentialForward.fog[50].dispatcher droppedJobsSLA_class_1 43805
scalar FogSequentialForward.fog[50].server[0] rho 1
scalar FogSequentialForward.fog[50].server[0] congestionRatio 0
scalar FogSequentialForward.fog[50].server[0] totalJobs 1579075
scalar FogSequentialForward.fog[50].server[0] droppedJobsQueue 139166
scalar FogSequentialForward.fog[50].server[0] droppedJobsTimout 0
scalar FogSequentialForward.fog[50].server[0] droppedJobsSLA 1062070
scalar FogSequentialForward.fog[50].server[0] droppedJobsTotal 1201236
scalar FogSequentialForward.fog[51].dispatcher localJobs 1580686
scalar FogSequentialForward.fog[51].dispatcher internalJobs 1622322
scalar FogSequentialForward.fog[51].dispatcher externalJobs 3821562
scalar FogSequentialForward.fog[51].dispatcher remoteJobs 3819416
scalar FogSequentialForward.fog[51].dispatcher probeQueries 0
scalar FogSequentialForward.fog[51].dispatcher probeAnswers 0
scalar FogSequentialForward.fog[51].dispatcher droppedJobsSLA 43782
scalar FogSequentialForward.fog[51].dispatcher jobs_class_1 5443884
scalar FogSequentialForward.fog[51].dispatcher remoteJobs_class_1 3819416
scalar FogSequentialForward.fog[51].dispatcher localJobs_class_1 1580686
scalar FogSequentialForward.fog[51].dispatcher droppedJobsSLA_class_1 43782
scalar FogSequentialForward.fog[51].server[0] rho 0.99999874830246
scalar FogSequentialForward.fog[51].server[0] congestionRatio 0
scalar FogSequentialForward.fog[51].server[0] totalJobs 1580686
scalar FogSequentialForward.fog[51].server[0] droppedJobsQueue 139596
scalar FogSequentialForward.fog[51].server[0] droppedJobsTimout 0
scalar FogSequentialForward.fog[51].server[0] droppedJobsSLA 1062691
scalar FogSequentialForward.fog[51].server[0] droppedJobsTotal 1202287
scalar FogSequentialForward.fog[52].dispatcher localJobs 1579823
scalar FogSequentialForward.fog[52].dispatcher internalJobs 1621583
scalar FogSequentialForward.fog[52].dispatcher externalJobs 3821198
scalar FogSequentialForward.fog[52].dispatcher remoteJobs 3819448
scalar FogSequentialForward.fog[52].dispatcher probeQueries 0
scalar FogSequentialForward.fog[52].dispatcher probeAnswers 0
scalar FogSequentialForward.fog[52].dispatcher droppedJobsSLA 43510
scalar FogSequentialForward.fog[52].dispatcher jobs_class_1 5442781
scalar FogSequentialForward.fog[52].dispatcher remoteJobs_class_1 3819448
scalar FogSequentialForward.fog[52].dispatcher localJobs_class_1 1579823
scalar FogSequentialForward.fog[52].dispatcher droppedJobsSLA_class_1 43510
scalar FogSequentialForward.fog[52].server[0] rho 1
scalar FogSequentialForward.fog[52].server[0] congestionRatio 0
scalar FogSequentialForward.fog[52].server[0] totalJobs 1579823
scalar FogSequentialForward.fog[52].server[0] droppedJobsQueue 139171
scalar FogSequentialForward.fog[52].server[0] droppedJobsTimout 0
scalar FogSequentialForward.fog[52].server[0] droppedJobsSLA 1062199
scalar FogSequentialForward.fog[52].server[0] droppedJobsTotal 1201370
scalar FogSequentialForward.fog[53].dispatcher localJobs 1579070
scalar FogSequentialForward.fog[53].dispatcher internalJobs 1625008
scalar FogSequentialForward.fog[53].dispatcher externalJobs 3819346
scalar FogSequentialForward.fog[53].dispatcher remoteJobs 3821559
scalar FogSequentialForward.fog[53].dispatcher probeQueries 0
scalar FogSequentialForward.fog[53].dispatcher probeAnswers 0
scalar FogSequentialForward.fog[53].dispatcher droppedJobsSLA 43725
scalar FogSequentialForward.fog[53].dispatcher jobs_class_1 5444354
scalar FogSequentialForward.fog[53].dispatcher remoteJobs_class_1 3821559
scalar FogSequentialForward.fog[53].dispatcher localJobs_class_1 1579070
scalar FogSequentialForward.fog[53].dispatcher droppedJobsSLA_class_1 43725
scalar FogSequentialForward.fog[53].server[0] rho 1
scalar FogSequentialForward.fog[53].server[0] congestionRatio 0
scalar FogSequentialForward.fog[53].server[0] totalJobs 1579070
scalar FogSequentialForward.fog[53].server[0] droppedJobsQueue 139172
scalar FogSequentialForward.fog[53].server[0] droppedJobsTimout 0
scalar FogSequentialForward.fog[53].server[0] droppedJobsSLA 1061570
scalar FogSequentialForward.fog[53].server[0] droppedJobsTotal 1200742
scalar FogSequentialForward.fog[54].dispatcher localJobs 1580027
scalar FogSequentialForward.fog[54].dispatcher internalJobs 1622872
scalar FogSequentialForward.fog[54].dispatcher externalJobs 3821968
scalar FogSequentialForward.fog[54].dispatcher remoteJobs 3820784
scalar FogSequentialForward.fog[54].dispatcher probeQueries 0
scalar FogSequentialForward.fog[54].dispatcher probeAnswers 0
scalar FogSequentialForward.fog[54].dispatcher droppedJobsSLA 44029
scalar FogSequentialForward.fog[54].dispatcher jobs_class_1 5444840
scalar FogSequentialForward.fog[54].dispatcher remoteJobs_class_1 3820784
scalar FogSequentialForward.fog[54].dispatcher localJobs_class_1 1580027
scalar FogSequentialForward.fog[54].dispatcher droppedJobsSLA_class_1 44029
scalar FogSequentialForward.fog[54].server[0] rho 1
scalar FogSequentialForward.fog[54].server[0] congestionRatio 0
scalar FogSequentialForward.fog[54].server[0] totalJobs 1580027
scalar FogSequentialForward.fog[54].server[0] droppedJobsQueue 139280
scalar FogSequentialForward.fog[54].server[0] droppedJobsTimout 0
scalar FogSequentialForward.fog[54].server[0] droppedJobsSLA 1061946
scalar FogSequentialForward.fog[54].server[0] droppedJobsTotal 1201226
scalar FogSequentialForward.fog[55].dispatcher localJobs 1579686
scalar FogSequentialForward.fog[55].dispatcher internalJobs 1624103
scalar FogSequentialForward.fog[55].dispatcher externalJobs 3822851
scalar FogSequentialForward.fog[55].dispatcher remoteJobs 3823693
scalar FogSequentialForward.fog[55].dispatcher probeQueries 0
scalar FogSequentialForward.fog[55].dispatcher probeAnswers 0
scalar FogSequentialForward.fog[55].dispatcher droppedJobsSLA 43575
scalar FogSequentialForward.fog[55].dispatcher jobs_class_1 5446954
scalar FogSequentialForward.fog[55].dispatcher remoteJobs_class_1 3823693
scalar FogSequentialForward.fog[55].dispatcher localJobs_class_1 1579686
scalar FogSequentialForward.fog[55].dispatcher droppedJobsSLA_class_1 43575
scalar FogSequentialForward.fog[55].server[0] rho 0.99999982118607
scalar FogSequentialForward.fog[55].server[0] congestionRatio 0
scalar FogSequentialForward.fog[55].server[0] totalJobs 1579686
scalar FogSequentialForward.fog[55].server[0] droppedJobsQueue 139309
scalar FogSequentialForward.fog[55].server[0] droppedJobsTimout 0
scalar FogSequentialForward.fog[55].server[0] droppedJobsSLA 1061852
scalar FogSequentialForward.fog[55].server[0] droppedJobsTotal 1201161
scalar FogSequentialForward.fog[56].dispatcher localJobs 1578775
scalar FogSequentialForward.fog[56].dispatcher internalJobs 1623296
scalar FogSequentialForward.fog[56].dispatcher externalJobs 3820028
scalar FogSequentialForward.fog[56].dispatcher remoteJobs 3820698
scalar FogSequentialForward.fog[56].dispatcher probeQueries 0
scalar FogSequentialForward.fog[56].dispatcher probeAnswers 0
scalar FogSequentialForward.fog[56].dispatcher droppedJobsSLA 43851
scalar FogSequentialForward.fog[56].dispatcher jobs_class_1 5443324
scalar FogSequentialForward.fog[56].dispatcher remoteJobs_class_1 3820698
scalar FogSequentialForward.fog[56].dispatcher localJobs_class_1 1578775
scalar FogSequentialForward.fog[56].dispatcher droppedJobsSLA_class_1 43851
scalar FogSequentialForward.fog[56].server[0] rho 1
scalar FogSequentialForward.fog[56].server[0] congestionRatio 0
scalar FogSequentialForward.fog[56].server[0] totalJobs 1578775
scalar FogSequentialForward.fog[56].server[0] droppedJobsQueue 138825
scalar FogSequentialForward.fog[56].server[0] droppedJobsTimout 0
scalar FogSequentialForward.fog[56].server[0] droppedJobsSLA 1061270
scalar FogSequentialForward.fog[56].server[0] droppedJobsTotal 1200095
scalar FogSequentialForward.fog[57].dispatcher localJobs 1579040
scalar FogSequentialForward.fog[57].dispatcher internalJobs 1622282
scalar FogSequentialForward.fog[57].dispatcher externalJobs 3818131
scalar FogSequentialForward.fog[57].dispatcher remoteJobs 3817681
scalar FogSequentialForward.fog[57].dispatcher probeQueries 0
scalar FogSequentialForward.fog[57].dispatcher probeAnswers 0
scalar FogSequentialForward.fog[57].dispatcher droppedJobsSLA 43692
scalar FogSequentialForward.fog[57].dispatcher jobs_class_1 5440413
scalar FogSequentialForward.fog[57].dispatcher remoteJobs_class_1 3817681
scalar FogSequentialForward.fog[57].dispatcher localJobs_class_1 1579040
scalar FogSequentialForward.fog[57].dispatcher droppedJobsSLA_class_1 43692
scalar FogSequentialForward.fog[57].server[0] rho 1
scalar FogSequentialForward.fog[57].server[0] congestionRatio 0
scalar FogSequentialForward.fog[57].server[0] totalJobs 1579040
scalar FogSequentialForward.fog[57].server[0] droppedJobsQueue 138788
scalar FogSequentialForward.fog[57].server[0] droppedJobsTimout 0
scalar FogSequentialForward.fog[57].server[0] droppedJobsSLA 1061434
scalar FogSequentialForward.fog[57].server[0] droppedJobsTotal 1200222
scalar FogSequentialForward.fog[58].dispatcher localJobs 1579367
scalar FogSequentialForward.fog[58].dispatcher internalJobs 1622659
scalar FogSequentialForward.fog[58].dispatcher externalJobs 3824756
scalar FogSequentialForward.fog[58].dispatcher remoteJobs 3823862
scalar FogSequentialForward.fog[58].dispatcher probeQueries 0
scalar FogSequentialForward.fog[58].dispatcher probeAnswers 0
scalar FogSequentialForward.fog[58].dispatcher droppedJobsSLA 44186
scalar FogSequentialForward.fog[58].dispatcher jobs_class_1 5447415
scalar FogSequentialForward.fog[58].dispatcher remoteJobs_class_1 3823862
scalar FogSequentialForward.fog[58].dispatcher localJobs_class_1 1579367
scalar FogSequentialForward.fog[58].dispatcher droppedJobsSLA_class_1 44186
scalar FogSequentialForward.fog[58].server[0] rho 1
scalar FogSequentialForward.fog[58].server[0] congestionRatio 0
scalar FogSequentialForward.fog[58].server[0] totalJobs 1579367
scalar FogSequentialForward.fog[58].server[0] droppedJobsQueue 139187
scalar FogSequentialForward.fog[58].server[0] droppedJobsTimout 0
scalar FogSequentialForward.fog[58].server[0] droppedJobsSLA 1062383
scalar FogSequentialForward.fog[58].server[0] droppedJobsTotal 1201570
scalar FogSequentialForward.fog[59].dispatcher localJobs 1579614
scalar FogSequentialForward.fog[59].dispatcher internalJobs 1622254
scalar FogSequentialForward.fog[59].dispatcher externalJobs 3819147
scalar FogSequentialForward.fog[59].dispatcher remoteJobs 3818574
scalar FogSequentialForward.fog[59].dispatcher probeQueries 0
scalar FogSequentialForward.fog[59].dispatcher probeAnswers 0
scalar FogSequentialForward.fog[59].dispatcher droppedJobsSLA 43213
scalar FogSequentialForward.fog[59].dispatcher jobs_class_1 5441401
scalar FogSequentialForward.fog[59].dispatcher remoteJobs_class_1 3818574
scalar FogSequentialForward.fog[59].dispatcher localJobs_class_1 1579614
scalar FogSequentialForward.fog[59].dispatcher droppedJobsSLA_class_1 43213
scalar FogSequentialForward.fog[59].server[0] rho 0.99999988079071
scalar FogSequentialForward.fog[59].server[0] congestionRatio 0
scalar FogSequentialForward.fog[59].server[0] totalJobs 1579614
scalar FogSequentialForward.fog[59].server[0] droppedJobsQueue 139205
scalar FogSequentialForward.fog[59].server[0] droppedJobsTimout 0
scalar FogSequentialForward.fog[59].server[0] droppedJobsSLA 1061986
scalar FogSequentialForward.fog[59].server[0] droppedJobsTotal 1201191
scalar FogSequentialForward.fog[60].dispatcher localJobs 1580630
scalar FogSequentialForward.fog[60].dispatcher internalJobs 1622936
scalar FogSequentialForward.fog[60].dispatcher externalJobs 3821470
scalar FogSequentialForward.fog[60].dispatcher remoteJobs 3819892
scalar FogSequentialForward.fog[60].dispatcher probeQueries 0
scalar FogSequentialForward.fog[60].dispatcher probeAnswers 0
scalar FogSequentialForward.fog[60].dispatcher droppedJobsSLA 43884
scalar FogSequentialForward.fog[60].dispatcher jobs_class_1 5444406
scalar FogSequentialForward.fog[60].dispatcher remoteJobs_class_1 3819892
scalar FogSequentialForward.fog[60].dispatcher localJobs_class_1 1580630
scalar FogSequentialForward.fog[60].dispatcher droppedJobsSLA_class_1 43884
scalar FogSequentialForward.fog[60].server[0] rho 1
scalar FogSequentialForward.fog[60].server[0] congestionRatio 0
scalar FogSequentialForward.fog[60].server[0] totalJobs 1580630
scalar FogSequentialForward.fog[60].server[0] droppedJobsQueue 139453
scalar FogSequentialForward.fog[60].server[0] droppedJobsTimout 0
scalar FogSequentialForward.fog[60].server[0] droppedJobsSLA 1062723
scalar FogSequentialForward.fog[60].server[0] droppedJobsTotal 1202176
scalar FogSequentialForward.fog[61].dispatcher localJobs 1579337
scalar FogSequentialForward.fog[61].dispatcher internalJobs 1623094
scalar FogSequentialForward.fog[61].dispatcher externalJobs 3821543
scalar FogSequentialForward.fog[61].dispatcher remoteJobs 3821366
scalar FogSequentialForward.fog[61].dispatcher probeQueries 0
scalar FogSequentialForward.fog[61].dispatcher probeAnswers 0
scalar FogSequentialForward.fog[61].dispatcher droppedJobsSLA 43934
scalar FogSequentialForward.fog[61].dispatcher jobs_class_1 5444637
scalar FogSequentialForward.fog[61].dispatcher remoteJobs_class_1 3821366
scalar FogSequentialForward.fog[61].dispatcher localJobs_class_1 1579337
scalar FogSequentialForward.fog[61].dispatcher droppedJobsSLA_class_1 43934
scalar FogSequentialForward.fog[61].server[0] rho 0.99999988079071
scalar FogSequentialForward.fog[61].server[0] congestionRatio 0
scalar FogSequentialForward.fog[61].server[0] totalJobs 1579337
scalar FogSequentialForward.fog[61].server[0] droppedJobsQueue 139102
scalar FogSequentialForward.fog[61].server[0] droppedJobsTimout 0
scalar FogSequentialForward.fog[61].server[0] droppedJobsSLA 1061807
scalar FogSequentialForward.fog[61].server[0] droppedJobsTotal 1200909
scalar FogSequentialForward.fog[62].dispatcher localJobs 1578939
scalar FogSequentialForward.fog[62].dispatcher internalJobs 1625546
scalar FogSequentialForward.fog[62].dispatcher externalJobs 3821780
scalar FogSequentialForward.fog[62].dispatcher remoteJobs 3824511
scalar FogSequentialForward.fog[62].dispatcher probeQueries 0
scalar FogSequentialForward.fog[62].dispatcher probeAnswers 0
scalar FogSequentialForward.fog[62].dispatcher droppedJobsSLA 43876
scalar FogSequentialForward.fog[62].dispatcher jobs_class_1 5447326
scalar FogSequentialForward.fog[62].dispatcher remoteJobs_class_1 3824511
scalar FogSequentialForward.fog[62].dispatcher localJobs_class_1 1578939
scalar FogSequentialForward.fog[62].dispatcher droppedJobsSLA_class_1 43876
scalar FogSequentialForward.fog[62].server[0] rho 1
scalar FogSequentialForward.fog[62].server[0] congestionRatio 0
scalar FogSequentialForward.fog[62].server[0] totalJobs 1578939
scalar FogSequentialForward.fog[62].server[0] droppedJobsQueue 139110
scalar FogSequentialForward.fog[62].server[0] droppedJobsTimout 0
scalar FogSequentialForward.fog[62].server[0] droppedJobsSLA 1061368
scalar FogSequentialForward.fog[62].server[0] droppedJobsTotal 1200478
scalar FogSequentialForward.fog[63].dispatcher localJobs 1578537
scalar FogSequentialForward.fog[63].dispatcher internalJobs 1622913
scalar FogSequentialForward.fog[63].dispatcher externalJobs 3820915
scalar FogSequentialForward.fog[63].dispatcher remoteJobs 3821711
scalar FogSequentialForward.fog[63].dispatcher probeQueries 0
scalar FogSequentialForward.fog[63].dispatcher probeAnswers 0
scalar FogSequentialForward.fog[63].dispatcher droppedJobsSLA 43580
scalar FogSequentialForward.fog[63].dispatcher jobs_class_1 5443828
scalar FogSequentialForward.fog[63].dispatcher remoteJobs_class_1 3821711
scalar FogSequentialForward.fog[63].dispatcher localJobs_class_1 1578537
scalar FogSequentialForward.fog[63].dispatcher droppedJobsSLA_class_1 43580
scalar FogSequentialForward.fog[63].server[0] rho 0.9999994635582
scalar FogSequentialForward.fog[63].server[0] congestionRatio 0
scalar FogSequentialForward.fog[63].server[0] totalJobs 1578537
scalar FogSequentialForward.fog[63].server[0] droppedJobsQueue 138562
scalar FogSequentialForward.fog[63].server[0] droppedJobsTimout 0
scalar FogSequentialForward.fog[63].server[0] droppedJobsSLA 1062361
scalar FogSequentialForward.fog[63].server[0] droppedJobsTotal 1200923
scalar FogSequentialForward.fog[64].dispatcher localJobs 1579278
scalar FogSequentialForward.fog[64].dispatcher internalJobs 1623239
scalar FogSequentialForward.fog[64].dispatcher externalJobs 3821442
scalar FogSequentialForward.fog[64].dispatcher remoteJobs 3821470
scalar FogSequentialForward.fog[64].dispatcher probeQueries 0
scalar FogSequentialForward.fog[64].dispatcher probeAnswers 0
scalar FogSequentialForward.fog[64].dispatcher droppedJobsSLA 43933
scalar FogSequentialForward.fog[64].dispatcher jobs_class_1 5444681
scalar FogSequentialForward.fog[64].dispatcher remoteJobs_class_1 3821470
scalar FogSequentialForward.fog[64].dispatcher localJobs_class_1 1579278
scalar FogSequentialForward.fog[64].dispatcher droppedJobsSLA_class_1 43933
scalar FogSequentialForward.fog[64].server[0] rho 1
scalar FogSequentialForward.fog[64].server[0] congestionRatio 0
scalar FogSequentialForward.fog[64].server[0] totalJobs 1579278
scalar FogSequentialForward.fog[64].server[0] droppedJobsQueue 139219
scalar FogSequentialForward.fog[64].server[0] droppedJobsTimout 0
scalar FogSequentialForward.fog[64].server[0] droppedJobsSLA 1062347
scalar FogSequentialForward.fog[64].server[0] droppedJobsTotal 1201566
scalar FogSequentialForward.fog[65].dispatcher localJobs 1579218
scalar FogSequentialForward.fog[65].dispatcher internalJobs 1621520
scalar FogSequentialForward.fog[65].dispatcher externalJobs 3821288
scalar FogSequentialForward.fog[65].dispatcher remoteJobs 3819811
scalar FogSequentialForward.fog[65].dispatcher probeQueries 0
[...]
scalar FogSequentialForward.fog[84].dispatcher jobs_class_1 5447880
scalar FogSequentialForward.fog[84].dispatcher remoteJobs_class_1 3823277
scalar FogSequentialForward.fog[84].dispatcher localJobs_class_1 1580530
scalar FogSequentialForward.fog[84].dispatcher droppedJobsSLA_class_1 44073
scalar FogSequentialForward.fog[84].server[0] rho 1
scalar FogSequentialForward.fog[84].server[0] congestionRatio 0
scalar FogSequentialForward.fog[84].server[0] totalJobs 1580530
scalar FogSequentialForward.fog[84].server[0] droppedJobsQueue 139730
scalar FogSequentialForward.fog[84].server[0] droppedJobsTimout 0
scalar FogSequentialForward.fog[84].server[0] droppedJobsSLA 1062328
scalar FogSequentialForward.fog[84].server[0] droppedJobsTotal 1202058
scalar FogSequentialForward.fog[85].dispatcher localJobs 1579132
scalar FogSequentialForward.fog[85].dispatcher internalJobs 1624654
scalar FogSequentialForward.fog[85].dispatcher externalJobs 3819812
scalar FogSequentialForward.fog[85].dispatcher remoteJobs 3821318
scalar FogSequentialForward.fog[85].dispatcher probeQueries 0
scalar FogSequentialForward.fog[85].dispatcher probeAnswers 0
scalar FogSequentialForward.fog[85].dispatcher droppedJobsSLA 44016
scalar FogSequentialForward.fog[85].dispatcher jobs_class_1 5444466
scalar FogSequentialForward.fog[85].dispatcher remoteJobs_class_1 3821318
scalar FogSequentialForward.fog[85].dispatcher localJobs_class_1 1579132
scalar FogSequentialForward.fog[85].dispatcher droppedJobsSLA_class_1 44016
scalar FogSequentialForward.fog[85].server[0] rho 0.99999958276749
scalar FogSequentialForward.fog[85].server[0] congestionRatio 0
scalar FogSequentialForward.fog[85].server[0] totalJobs 1579132
scalar FogSequentialForward.fog[85].server[0] droppedJobsQueue 139168
scalar FogSequentialForward.fog[85].server[0] droppedJobsTimout 0
scalar FogSequentialForward.fog[85].server[0] droppedJobsSLA 1061630
scalar FogSequentialForward.fog[85].server[0] droppedJobsTotal 1200798
scalar FogSequentialForward.fog[86].dispatcher localJobs 1579352
scalar FogSequentialForward.fog[86].dispatcher internalJobs 1622368
scalar FogSequentialForward.fog[86].dispatcher externalJobs 3822313
scalar FogSequentialForward.fog[86].dispatcher remoteJobs 3821431
scalar FogSequentialForward.fog[86].dispatcher probeQueries 0
scalar FogSequentialForward.fog[86].dispatcher probeAnswers 0
scalar FogSequentialForward.fog[86].dispatcher droppedJobsSLA 43898
scalar FogSequentialForward.fog[86].dispatcher jobs_class_1 5444681
scalar FogSequentialForward.fog[86].dispatcher remoteJobs_class_1 3821431
scalar FogSequentialForward.fog[86].dispatcher localJobs_class_1 1579352
scalar FogSequentialForward.fog[86].dispatcher droppedJobsSLA_class_1 43898
scalar FogSequentialForward.fog[86].server[0] rho 1
scalar FogSequentialForward.fog[86].server[0] congestionRatio 0
scalar FogSequentialForward.fog[86].server[0] totalJobs 1579352
scalar FogSequentialForward.fog[86].server[0] droppedJobsQueue 138889
scalar FogSequentialForward.fog[86].server[0] droppedJobsTimout 0
scalar FogSequentialForward.fog[86].server[0] droppedJobsSLA 1061982
scalar FogSequentialForward.fog[86].server[0] droppedJobsTotal 1200871
scalar FogSequentialForward.fog[87].dispatcher localJobs 1579218
scalar FogSequentialForward.fog[87].dispatcher internalJobs 1621981
scalar FogSequentialForward.fog[87].dispatcher externalJobs 3820817
scalar FogSequentialForward.fog[87].dispatcher remoteJobs 3819428
scalar FogSequentialForward.fog[87].dispatcher probeQueries 0
scalar FogSequentialForward.fog[87].dispatcher probeAnswers 0
scalar FogSequentialForward.fog[87].dispatcher droppedJobsSLA 44152
scalar FogSequentialForward.fog[87].dispatcher jobs_class_1 5442798
scalar FogSequentialForward.fog[87].dispatcher remoteJobs_class_1 3819428
scalar FogSequentialForward.fog[87].dispatcher localJobs_class_1 1579218
scalar FogSequentialForward.fog[87].dispatcher droppedJobsSLA_class_1 44152
scalar FogSequentialForward.fog[87].server[0] rho 1
scalar FogSequentialForward.fog[87].server[0] congestionRatio 0
scalar FogSequentialForward.fog[87].server[0] totalJobs 1579218
scalar FogSequentialForward.fog[87].server[0] droppedJobsQueue 138967
scalar FogSequentialForward.fog[87].server[0] droppedJobsTimout 0
scalar FogSequentialForward.fog[87].server[0] droppedJobsSLA 1062295
scalar FogSequentialForward.fog[87].server[0] droppedJobsTotal 1201262
scalar FogSequentialForward.fog[88].dispatcher localJobs 1579899
scalar FogSequentialForward.fog[88].dispatcher internalJobs 1623748
scalar FogSequentialForward.fog[88].dispatcher externalJobs 3823789
scalar FogSequentialForward.fog[88].dispatcher remoteJobs 3823899
scalar FogSequentialForward.fog[88].dispatcher probeQueries 0
scalar FogSequentialForward.fog[88].dispatcher probeAnswers 0
scalar FogSequentialForward.fog[88].dispatcher droppedJobsSLA 43739
scalar FogSequentialForward.fog[88].dispatcher jobs_class_1 5447537
scalar FogSequentialForward.fog[88].dispatcher remoteJobs_class_1 3823899
scalar FogSequentialForward.fog[88].dispatcher localJobs_class_1 1579899
scalar FogSequentialForward.fog[88].dispatcher droppedJobsSLA_class_1 43739
scalar FogSequentialForward.fog[88].server[0] rho 1
scalar FogSequentialForward.fog[88].server[0] congestionRatio 0
scalar FogSequentialForward.fog[88].server[0] totalJobs 1579899
scalar FogSequentialForward.fog[88].server[0] droppedJobsQueue 139314
scalar FogSequentialForward.fog[88].server[0] droppedJobsTimout 0
scalar FogSequentialForward.fog[88].server[0] droppedJobsSLA 1062725
scalar FogSequentialForward.fog[88].server[0] droppedJobsTotal 1202039
scalar FogSequentialForward.fog[89].dispatcher localJobs 1579709
scalar FogSequentialForward.fog[89].dispatcher internalJobs 1622316
scalar FogSequentialForward.fog[89].dispatcher externalJobs 3822087
scalar FogSequentialForward.fog[89].dispatcher remoteJobs 3821066
scalar FogSequentialForward.fog[89].dispatcher probeQueries 0
scalar FogSequentialForward.fog[89].dispatcher probeAnswers 0
scalar FogSequentialForward.fog[89].dispatcher droppedJobsSLA 43628
scalar FogSequentialForward.fog[89].dispatcher jobs_class_1 5444403
scalar FogSequentialForward.fog[89].dispatcher remoteJobs_class_1 3821066
scalar FogSequentialForward.fog[89].dispatcher localJobs_class_1 1579709
scalar FogSequentialForward.fog[89].dispatcher droppedJobsSLA_class_1 43628
scalar FogSequentialForward.fog[89].server[0] rho 1
scalar FogSequentialForward.fog[89].server[0] congestionRatio 0
scalar FogSequentialForward.fog[89].server[0] totalJobs 1579709
scalar FogSequentialForward.fog[89].server[0] droppedJobsQueue 138945
scalar FogSequentialForward.fog[89].server[0] droppedJobsTimout 0
scalar FogSequentialForward.fog[89].server[0] droppedJobsSLA 1062208
scalar FogSequentialForward.fog[89].server[0] droppedJobsTotal 1201153
scalar FogSequentialForward.fog[90].dispatcher localJobs 1580059
scalar FogSequentialForward.fog[90].dispatcher internalJobs 1619919
scalar FogSequentialForward.fog[90].dispatcher externalJobs 3823867
scalar FogSequentialForward.fog[90].dispatcher remoteJobs 3819774
scalar FogSequentialForward.fog[90].dispatcher probeQueries 0
scalar FogSequentialForward.fog[90].dispatcher probeAnswers 0
scalar FogSequentialForward.fog[90].dispatcher droppedJobsSLA 43953
scalar FogSequentialForward.fog[90].dispatcher jobs_class_1 5443786
scalar FogSequentialForward.fog[90].dispatcher remoteJobs_class_1 3819774
scalar FogSequentialForward.fog[90].dispatcher localJobs_class_1 1580059
scalar FogSequentialForward.fog[90].dispatcher droppedJobsSLA_class_1 43953
scalar FogSequentialForward.fog[90].server[0] rho 1
scalar FogSequentialForward.fog[90].server[0] congestionRatio 0
scalar FogSequentialForward.fog[90].server[0] totalJobs 1580059
scalar FogSequentialForward.fog[90].server[0] droppedJobsQueue 139230
scalar FogSequentialForward.fog[90].server[0] droppedJobsTimout 0
scalar FogSequentialForward.fog[90].server[0] droppedJobsSLA 1062234
scalar FogSequentialForward.fog[90].server[0] droppedJobsTotal 1201464
scalar FogSequentialForward.fog[91].dispatcher localJobs 1579751
scalar FogSequentialForward.fog[91].dispatcher internalJobs 1623667
scalar FogSequentialForward.fog[91].dispatcher externalJobs 3821100
scalar FogSequentialForward.fog[91].dispatcher remoteJobs 3820810
scalar FogSequentialForward.fog[91].dispatcher probeQueries 0
scalar FogSequentialForward.fog[91].dispatcher probeAnswers 0
scalar FogSequentialForward.fog[91].dispatcher droppedJobsSLA 44206
scalar FogSequentialForward.fog[91].dispatcher jobs_class_1 5444767
scalar FogSequentialForward.fog[91].dispatcher remoteJobs_class_1 3820810
scalar FogSequentialForward.fog[91].dispatcher localJobs_class_1 1579751
scalar FogSequentialForward.fog[91].dispatcher droppedJobsSLA_class_1 44206
scalar FogSequentialForward.fog[91].server[0] rho 0.99999994039536
scalar FogSequentialForward.fog[91].server[0] congestionRatio 0
scalar FogSequentialForward.fog[91].server[0] totalJobs 1579751
scalar FogSequentialForward.fog[91].server[0] droppedJobsQueue 139426
scalar FogSequentialForward.fog[91].server[0] droppedJobsTimout 0
scalar FogSequentialForward.fog[91].server[0] droppedJobsSLA 1062072
scalar FogSequentialForward.fog[91].server[0] droppedJobsTotal 1201498
scalar FogSequentialForward.fog[92].dispatcher localJobs 1578544
scalar FogSequentialForward.fog[92].dispatcher internalJobs 1622716
scalar FogSequentialForward.fog[92].dispatcher externalJobs 3818799
scalar FogSequentialForward.fog[92].dispatcher remoteJobs 3819051
scalar FogSequentialForward.fog[92].dispatcher probeQueries 0
scalar FogSequentialForward.fog[92].dispatcher probeAnswers 0
scalar FogSequentialForward.fog[92].dispatcher droppedJobsSLA 43920
scalar FogSequentialForward.fog[92].dispatcher jobs_class_1 5441515
scalar FogSequentialForward.fog[92].dispatcher remoteJobs_class_1 3819051
scalar FogSequentialForward.fog[92].dispatcher localJobs_class_1 1578544
scalar FogSequentialForward.fog[92].dispatcher droppedJobsSLA_class_1 43920
scalar FogSequentialForward.fog[92].server[0] rho 1
scalar FogSequentialForward.fog[92].server[0] congestionRatio 0
scalar FogSequentialForward.fog[92].server[0] totalJobs 1578544
scalar FogSequentialForward.fog[92].server[0] droppedJobsQueue 138744
scalar FogSequentialForward.fog[92].server[0] droppedJobsTimout 0
scalar FogSequentialForward.fog[92].server[0] droppedJobsSLA 1061202
scalar FogSequentialForward.fog[92].server[0] droppedJobsTotal 1199946
scalar FogSequentialForward.fog[93].dispatcher localJobs 1579351
scalar FogSequentialForward.fog[93].dispatcher internalJobs 1622293
scalar FogSequentialForward.fog[93].dispatcher externalJobs 3822403
scalar FogSequentialForward.fog[93].dispatcher remoteJobs 3821374
scalar FogSequentialForward.fog[93].dispatcher probeQueries 0
scalar FogSequentialForward.fog[93].dispatcher probeAnswers 0
scalar FogSequentialForward.fog[93].dispatcher droppedJobsSLA 43971
scalar FogSequentialForward.fog[93].dispatcher jobs_class_1 5444696
scalar FogSequentialForward.fog[93].dispatcher remoteJobs_class_1 3821374
scalar FogSequentialForward.fog[93].dispatcher localJobs_class_1 1579351
scalar FogSequentialForward.fog[93].dispatcher droppedJobsSLA_class_1 43971
scalar FogSequentialForward.fog[93].server[0] rho 1
scalar FogSequentialForward.fog[93].server[0] congestionRatio 0
scalar FogSequentialForward.fog[93].server[0] totalJobs 1579351
scalar FogSequentialForward.fog[93].server[0] droppedJobsQueue 139406
scalar FogSequentialForward.fog[93].server[0] droppedJobsTimout 0
scalar FogSequentialForward.fog[93].server[0] droppedJobsSLA 1062071
scalar FogSequentialForward.fog[93].server[0] droppedJobsTotal 1201477
scalar FogSequentialForward.fog[94].dispatcher localJobs 1579052
scalar FogSequentialForward.fog[94].dispatcher internalJobs 1622492
scalar FogSequentialForward.fog[94].dispatcher externalJobs 3818929
scalar FogSequentialForward.fog[94].dispatcher remoteJobs 3818492
scalar FogSequentialForward.fog[94].dispatcher probeQueries 0
scalar FogSequentialForward.fog[94].dispatcher probeAnswers 0
scalar FogSequentialForward.fog[94].dispatcher droppedJobsSLA 43877
scalar FogSequentialForward.fog[94].dispatcher jobs_class_1 5441421
scalar FogSequentialForward.fog[94].dispatcher remoteJobs_class_1 3818492
scalar FogSequentialForward.fog[94].dispatcher localJobs_class_1 1579052
scalar FogSequentialForward.fog[94].dispatcher droppedJobsSLA_class_1 43877
scalar FogSequentialForward.fog[94].server[0] rho 1
scalar FogSequentialForward.fog[94].server[0] congestionRatio 0
scalar FogSequentialForward.fog[94].server[0] totalJobs 1579052
scalar FogSequentialForward.fog[94].server[0] droppedJobsQueue 139067
scalar FogSequentialForward.fog[94].server[0] droppedJobsTimout 0
scalar FogSequentialForward.fog[94].server[0] droppedJobsSLA 1061744
scalar FogSequentialForward.fog[94].server[0] droppedJobsTotal 1200811
scalar FogSequentialForward.fog[95].dispatcher localJobs 1579344
scalar FogSequentialForward.fog[95].dispatcher internalJobs 1624518
scalar FogSequentialForward.fog[95].dispatcher externalJobs 3819953
scalar FogSequentialForward.fog[95].dispatcher remoteJobs 3821251
scalar FogSequentialForward.fog[95].dispatcher probeQueries 0
scalar FogSequentialForward.fog[95].dispatcher probeAnswers 0
scalar FogSequentialForward.fog[95].dispatcher droppedJobsSLA 43876
scalar FogSequentialForward.fog[95].dispatcher jobs_class_1 5444471
scalar FogSequentialForward.fog[95].dispatcher remoteJobs_class_1 3821251
scalar FogSequentialForward.fog[95].dispatcher localJobs_class_1 1579344
scalar FogSequentialForward.fog[95].dispatcher droppedJobsSLA_class_1 43876
scalar FogSequentialForward.fog[95].server[0] rho 1
scalar FogSequentialForward.fog[95].server[0] congestionRatio 0
scalar FogSequentialForward.fog[95].server[0] totalJobs 1579344
scalar FogSequentialForward.fog[95].server[0] droppedJobsQueue 139250
scalar FogSequentialForward.fog[95].server[0] droppedJobsTimout 0
scalar FogSequentialForward.fog[95].server[0] droppedJobsSLA 1061662
scalar FogSequentialForward.fog[95].server[0] droppedJobsTotal 1200912
scalar FogSequentialForward.fog[96].dispatcher localJobs 1578782
scalar FogSequentialForward.fog[96].dispatcher internalJobs 1621586
scalar FogSequentialForward.fog[96].dispatcher externalJobs 3821545
scalar FogSequentialForward.fog[96].dispatcher remoteJobs 3820747
scalar FogSequentialForward.fog[96].dispatcher probeQueries 0
scalar FogSequentialForward.fog[96].dispatcher probeAnswers 0
scalar FogSequentialForward.fog[96].dispatcher droppedJobsSLA 43602
scalar FogSequentialForward.fog[96].dispatcher jobs_class_1 5443131
scalar FogSequentialForward.fog[96].dispatcher remoteJobs_class_1 3820747
scalar FogSequentialForward.fog[96].dispatcher localJobs_class_1 1578782
scalar FogSequentialForward.fog[96].dispatcher droppedJobsSLA_class_1 43602
scalar FogSequentialForward.fog[96].server[0] rho 1
scalar FogSequentialForward.fog[96].server[0] congestionRatio 0
scalar FogSequentialForward.fog[96].server[0] totalJobs 1578782
scalar FogSequentialForward.fog[96].server[0] droppedJobsQueue 138853
scalar FogSequentialForward.fog[96].server[0] droppedJobsTimout 0
scalar FogSequentialForward.fog[96].server[0] droppedJobsSLA 1061467
scalar FogSequentialForward.fog[96].server[0] droppedJobsTotal 1200320
scalar FogSequentialForward.fog[97].dispatcher localJobs 1580668
scalar FogSequentialForward.fog[97].dispatcher internalJobs 1625857
scalar FogSequentialForward.fog[97].dispatcher externalJobs 3820876
scalar FogSequentialForward.fog[97].dispatcher remoteJobs 3822097
scalar FogSequentialForward.fog[97].dispatcher probeQueries 0
scalar FogSequentialForward.fog[97].dispatcher probeAnswers 0
scalar FogSequentialForward.fog[97].dispatcher droppedJobsSLA 43968
scalar FogSequentialForward.fog[97].dispatcher jobs_class_1 5446733
scalar FogSequentialForward.fog[97].dispatcher remoteJobs_class_1 3822097
scalar FogSequentialForward.fog[97].dispatcher localJobs_class_1 1580668
scalar FogSequentialForward.fog[97].dispatcher droppedJobsSLA_class_1 43968
scalar FogSequentialForward.fog[97].server[0] rho 1
scalar FogSequentialForward.fog[97].server[0] congestionRatio 0
scalar FogSequentialForward.fog[97].server[0] totalJobs 1580668
scalar FogSequentialForward.fog[97].server[0] droppedJobsQueue 139517
scalar FogSequentialForward.fog[97].server[0] droppedJobsTimout 0
scalar FogSequentialForward.fog[97].server[0] droppedJobsSLA 1061806
scalar FogSequentialForward.fog[97].server[0] droppedJobsTotal 1201323
scalar FogSequentialForward.fog[98].dispatcher localJobs 1578521
scalar FogSequentialForward.fog[98].dispatcher internalJobs 1622844
scalar FogSequentialForward.fog[98].dispatcher externalJobs 3817631
scalar FogSequentialForward.fog[98].dispatcher remoteJobs 3818495
scalar FogSequentialForward.fog[98].dispatcher probeQueries 0
scalar FogSequentialForward.fog[98].dispatcher probeAnswers 0
scalar FogSequentialForward.fog[98].dispatcher droppedJobsSLA 43459
scalar FogSequentialForward.fog[98].dispatcher jobs_class_1 5440475
scalar FogSequentialForward.fog[98].dispatcher remoteJobs_class_1 3818495
scalar FogSequentialForward.fog[98].dispatcher localJobs_class_1 1578521
scalar FogSequentialForward.fog[98].dispatcher droppedJobsSLA_class_1 43459
scalar FogSequentialForward.fog[98].server[0] rho 1
scalar FogSequentialForward.fog[98].server[0] congestionRatio 0
scalar FogSequentialForward.fog[98].server[0] totalJobs 1578521
scalar FogSequentialForward.fog[98].server[0] droppedJobsQueue 138911
scalar FogSequentialForward.fog[98].server[0] droppedJobsTimout 0
scalar FogSequentialForward.fog[98].server[0] droppedJobsSLA 1061315
scalar FogSequentialForward.fog[98].server[0] droppedJobsTotal 1200226
scalar FogSequentialForward.fog[99].dispatcher localJobs 1578964
scalar FogSequentialForward.fog[99].dispatcher internalJobs 1623640
scalar FogSequentialForward.fog[99].dispatcher externalJobs 3818292
scalar FogSequentialForward.fog[99].dispatcher remoteJobs 3819148
scalar FogSequentialForward.fog[99].dispatcher probeQueries 0
scalar FogSequentialForward.fog[99].dispatcher probeAnswers 0
scalar FogSequentialForward.fog[99].dispatcher droppedJobsSLA 43820
scalar FogSequentialForward.fog[99].dispatcher jobs_class_1 5441932
scalar FogSequentialForward.fog[99].dispatcher remoteJobs_class_1 3819148
scalar FogSequentialForward.fog[99].dispatcher localJobs_class_1 1578964
scalar FogSequentialForward.fog[99].dispatcher droppedJobsSLA_class_1 43820
scalar FogSequentialForward.fog[99].server[0] rho 1
scalar FogSequentialForward.fog[99].server[0] congestionRatio 0
scalar FogSequentialForward.fog[99].server[0] totalJobs 1578964
scalar FogSequentialForward.fog[99].server[0] droppedJobsQueue 138841
scalar FogSequentialForward.fog[99].server[0] droppedJobsTimout 0
scalar FogSequentialForward.fog[99].server[0] droppedJobsSLA 1061188
scalar FogSequentialForward.fog[99].server[0] droppedJobsTotal 1200029
scalar FogSequentialForward.sink avg_responseTime_1 0.15044387616341
scalar FogSequentialForward.sink p90_responseTime_1 0.016021609736
scalar FogSequentialForward.sink med_responseTime_1 0.016021609736
scalar FogSequentialForward.sink avg_delayTime_1 0
scalar FogSequentialForward.sink p90_delayTime_1 0
scalar FogSequentialForward.sink med_delayTime_1 0
scalar FogSequentialForward.sink avg_queuingTime_1 0.12704530906177
scalar FogSequentialForward.sink p90_queuingTime_1 0
scalar FogSequentialForward.sink med_queuingTime_1 0
scalar FogSequentialForward.sink avg_serviceTime_1 0.016746727232654
scalar FogSequentialForward.sink p90_serviceTime_1 0.014771022062
scalar FogSequentialForward.sink med_serviceTime_1 0.014771022062
scalar FogSequentialForward.sink avg_balancerTime_1 0.0066518398689344
scalar FogSequentialForward.sink p90_balancerTime_1 0
scalar FogSequentialForward.sink med_balancerTime_1 0
scalar FogSequentialForward.sink avg_balancerCount_1 1.3983137646088
scalar FogSequentialForward.sink p90_balancerCount_1 1
scalar FogSequentialForward.sink med_balancerCount_1 1

