version 2
run Fog-mul_001-rho_08-thr_6-0-20190713-05:19:47-30079
attr configname Fog-mul_001-rho_08-thr_6
attr datetime 20190713-05:19:47
attr experiment Fog-mul_001-rho_08-thr_6
attr inifile FogSequentialForward.ini
attr iterationvars ""
attr iterationvarsf ""
attr measurement ""
attr network FogSequentialForward
attr processid 30079
attr repetition 0
attr replication #0
attr resultdir results
attr runnumber 0
attr seedset 0
param FogSequentialForward.proctimeMul 0.01
param FogSequentialForward.rho 0.8
param FogSequentialForward.fog[*].dispatcher.thr 6
param FogSequentialForward.nSources 100
param FogSequentialForward.rho 0.9
param FogSequentialForward.proctimeMul 1.0
param FogSequentialForward.source[*].appId 1
param FogSequentialForward.source[*].realTime true
param FogSequentialForward.source[*].multiHop true
param FogSequentialForward.fog[*].nServers 1
param FogSequentialForward.fog[*].dispatcher.fanOut 1
param FogSequentialForward.fog[*].server[*].timeSlice -1s
param FogSequentialForward.fog[*].server[*].timeout -1s
param FogSequentialForward.fog[*].server[*].capacity 20
param FogSequentialForward.fog[*].server[*].fifo true
param FogSequentialForward.fog[*].server[*].maxServiceTime -1s
param FogSequentialForward.fog[*].dispatcher.thr 1

scalar FogSequentialForward.fog[0].dispatcher localJobs 1156734
scalar FogSequentialForward.fog[0].dispatcher internalJobs 1442670
scalar FogSequentialForward.fog[0].dispatcher externalJobs 6927698
scalar FogSequentialForward.fog[0].dispatcher remoteJobs 6926071
scalar FogSequentialForward.fog[0].dispatcher probeQueries 0
scalar FogSequentialForward.fog[0].dispatcher probeAnswers 0
scalar FogSequentialForward.fog[0].dispatcher droppedJobsSLA 287563
scalar FogSequentialForward.fog[0].dispatcher jobs_class_1 8370368
scalar FogSequentialForward.fog[0].dispatcher remoteJobs_class_1 6926071
scalar FogSequentialForward.fog[0].dispatcher localJobs_class_1 1156734
scalar FogSequentialForward.fog[0].dispatcher droppedJobsSLA_class_1 287563
scalar FogSequentialForward.fog[0].server[0] rho 0.99997746944427
scalar FogSequentialForward.fog[0].server[0] congestionRatio 0
scalar FogSequentialForward.fog[0].server[0] totalJobs 1156734
scalar FogSequentialForward.fog[0].server[0] droppedJobsQueue 6685
scalar FogSequentialForward.fog[0].server[0] droppedJobsTimout 0
scalar FogSequentialForward.fog[0].server[0] droppedJobsSLA 627412
scalar FogSequentialForward.fog[0].server[0] droppedJobsTotal 634097
scalar FogSequentialForward.fog[1].dispatcher localJobs 1156354
scalar FogSequentialForward.fog[1].dispatcher internalJobs 1443158
scalar FogSequentialForward.fog[1].dispatcher externalJobs 6927998
scalar FogSequentialForward.fog[1].dispatcher remoteJobs 6929254
scalar FogSequentialForward.fog[1].dispatcher probeQueries 0
scalar FogSequentialForward.fog[1].dispatcher probeAnswers 0
scalar FogSequentialForward.fog[1].dispatcher droppedJobsSLA 285548
scalar FogSequentialForward.fog[1].dispatcher jobs_class_1 8371156
scalar FogSequentialForward.fog[1].dispatcher remoteJobs_class_1 6929254
scalar FogSequentialForward.fog[1].dispatcher localJobs_class_1 1156354
scalar FogSequentialForward.fog[1].dispatcher droppedJobsSLA_class_1 285548
scalar FogSequentialForward.fog[1].server[0] rho 0.9999732375145
scalar FogSequentialForward.fog[1].server[0] congestionRatio 0
scalar FogSequentialForward.fog[1].server[0] totalJobs 1156354
scalar FogSequentialForward.fog[1].server[0] droppedJobsQueue 6656
scalar FogSequentialForward.fog[1].server[0] droppedJobsTimout 0
scalar FogSequentialForward.fog[1].server[0] droppedJobsSLA 627295
scalar FogSequentialForward.fog[1].server[0] droppedJobsTotal 633951
scalar FogSequentialForward.fog[2].dispatcher localJobs 1156904
scalar FogSequentialForward.fog[2].dispatcher internalJobs 1443514
scalar FogSequentialForward.fog[2].dispatcher externalJobs 6925421
scalar FogSequentialForward.fog[2].dispatcher remoteJobs 6927503
scalar FogSequentialForward.fog[2].dispatcher probeQueries 0
scalar FogSequentialForward.fog[2].dispatcher probeAnswers 0
scalar FogSequentialForward.fog[2].dispatcher droppedJobsSLA 284528
scalar FogSequentialForward.fog[2].dispatcher jobs_class_1 8368935
scalar FogSequentialForward.fog[2].dispatcher remoteJobs_class_1 6927503
scalar FogSequentialForward.fog[2].dispatcher localJobs_class_1 1156904
scalar FogSequentialForward.fog[2].dispatcher droppedJobsSLA_class_1 284528
scalar FogSequentialForward.fog[2].server[0] rho 0.99997746944427
scalar FogSequentialForward.fog[2].server[0] congestionRatio 0
scalar FogSequentialForward.fog[2].server[0] totalJobs 1156904
scalar FogSequentialForward.fog[2].server[0] droppedJobsQueue 6692
scalar FogSequentialForward.fog[2].server[0] droppedJobsTimout 0
scalar FogSequentialForward.fog[2].server[0] droppedJobsSLA 627718
scalar FogSequentialForward.fog[2].server[0] droppedJobsTotal 634410
scalar FogSequentialForward.fog[3].dispatcher localJobs 1156796
scalar FogSequentialForward.fog[3].dispatcher internalJobs 1440878
scalar FogSequentialForward.fog[3].dispatcher externalJobs 6928138
scalar FogSequentialForward.fog[3].dispatcher remoteJobs 6926442
scalar FogSequentialForward.fog[3].dispatcher probeQueries 0
scalar FogSequentialForward.fog[3].dispatcher probeAnswers 0
scalar FogSequentialForward.fog[3].dispatcher droppedJobsSLA 285778
scalar FogSequentialForward.fog[3].dispatcher jobs_class_1 8369016
scalar FogSequentialForward.fog[3].dispatcher remoteJobs_class_1 6926442
scalar FogSequentialForward.fog[3].dispatcher localJobs_class_1 1156796
scalar FogSequentialForward.fog[3].dispatcher droppedJobsSLA_class_1 285778
scalar FogSequentialForward.fog[3].server[0] rho 0.99997287988663
scalar FogSequentialForward.fog[3].server[0] congestionRatio 0
scalar FogSequentialForward.fog[3].server[0] totalJobs 1156796
scalar FogSequentialForward.fog[3].server[0] droppedJobsQueue 6673
scalar FogSequentialForward.fog[3].server[0] droppedJobsTimout 0
scalar FogSequentialForward.fog[3].server[0] droppedJobsSLA 627919
scalar FogSequentialForward.fog[3].server[0] droppedJobsTotal 634592
scalar FogSequentialForward.fog[4].dispatcher localJobs 1158175
scalar FogSequentialForward.fog[4].dispatcher internalJobs 1443795
scalar FogSequentialForward.fog[4].dispatcher externalJobs 6927935
scalar FogSequentialForward.fog[4].dispatcher remoteJobs 6927756
scalar FogSequentialForward.fog[4].dispatcher probeQueries 0
scalar FogSequentialForward.fog[4].dispatcher probeAnswers 0
scalar FogSequentialForward.fog[4].dispatcher droppedJobsSLA 285799
scalar FogSequentialForward.fog[4].dispatcher jobs_class_1 8371730
scalar FogSequentialForward.fog[4].dispatcher remoteJobs_class_1 6927756
scalar FogSequentialForward.fog[4].dispatcher localJobs_class_1 1158175
scalar FogSequentialForward.fog[4].dispatcher droppedJobsSLA_class_1 285799
scalar FogSequentialForward.fog[4].server[0] rho 0.99997478723526
scalar FogSequentialForward.fog[4].server[0] congestionRatio 0
scalar FogSequentialForward.fog[4].server[0] totalJobs 1158175
scalar FogSequentialForward.fog[4].server[0] droppedJobsQueue 6844
scalar FogSequentialForward.fog[4].server[0] droppedJobsTimout 0
scalar FogSequentialForward.fog[4].server[0] droppedJobsSLA 628026
scalar FogSequentialForward.fog[4].server[0] droppedJobsTotal 634870
scalar FogSequentialForward.fog[5].dispatcher localJobs 1157580
scalar FogSequentialForward.fog[5].dispatcher internalJobs 1443855
scalar FogSequentialForward.fog[5].dispatcher externalJobs 6923918
scalar FogSequentialForward.fog[5].dispatcher remoteJobs 6924946
scalar FogSequentialForward.fog[5].dispatcher probeQueries 0
scalar FogSequentialForward.fog[5].dispatcher probeAnswers 0
scalar FogSequentialForward.fog[5].dispatcher droppedJobsSLA 285247
scalar FogSequentialForward.fog[5].dispatcher jobs_class_1 8367773
scalar FogSequentialForward.fog[5].dispatcher remoteJobs_class_1 6924946
scalar FogSequentialForward.fog[5].dispatcher localJobs_class_1 1157580
scalar FogSequentialForward.fog[5].dispatcher droppedJobsSLA_class_1 285247
scalar FogSequentialForward.fog[5].server[0] rho 0.99997878074646
scalar FogSequentialForward.fog[5].server[0] congestionRatio 0
scalar FogSequentialForward.fog[5].server[0] totalJobs 1157580
scalar FogSequentialForward.fog[5].server[0] droppedJobsQueue 6714
scalar FogSequentialForward.fog[5].server[0] droppedJobsTimout 0
scalar FogSequentialForward.fog[5].server[0] droppedJobsSLA 628322
scalar FogSequentialForward.fog[5].server[0] droppedJobsTotal 635036
scalar FogSequentialForward.fog[6].dispatcher localJobs 1156109
scalar FogSequentialForward.fog[6].dispatcher internalJobs 1443365
scalar FogSequentialForward.fog[6].dispatcher externalJobs 6928083
scalar FogSequentialForward.fog[6].dispatcher remoteJobs 6929894
scalar FogSequentialForward.fog[6].dispatcher probeQueries 0
scalar FogSequentialForward.fog[6].dispatcher probeAnswers 0
scalar FogSequentialForward.fog[6].dispatcher droppedJobsSLA 285445
scalar FogSequentialForward.fog[6].dispatcher jobs_class_1 8371448
scalar FogSequentialForward.fog[6].dispatcher remoteJobs_class_1 6929894
scalar FogSequentialForward.fog[6].dispatcher localJobs_class_1 1156109
scalar FogSequentialForward.fog[6].dispatcher droppedJobsSLA_class_1 285445
scalar FogSequentialForward.fog[6].server[0] rho 0.99997699260712
scalar FogSequentialForward.fog[6].server[0] congestionRatio 0
scalar FogSequentialForward.fog[6].server[0] totalJobs 1156109
scalar FogSequentialForward.fog[6].server[0] droppedJobsQueue 6548
scalar FogSequentialForward.fog[6].server[0] droppedJobsTimout 0
scalar FogSequentialForward.fog[6].server[0] droppedJobsSLA 627473
scalar FogSequentialForward.fog[6].server[0] droppedJobsTotal 634021
scalar FogSequentialForward.fog[7].dispatcher localJobs 1156308
scalar FogSequentialForward.fog[7].dispatcher internalJobs 1443319
scalar FogSequentialForward.fog[7].dispatcher externalJobs 6922824
scalar FogSequentialForward.fog[7].dispatcher remoteJobs 6925293
scalar FogSequentialForward.fog[7].dispatcher probeQueries 0
scalar FogSequentialForward.fog[7].dispatcher probeAnswers 0
scalar FogSequentialForward.fog[7].dispatcher droppedJobsSLA 284542
scalar FogSequentialForward.fog[7].dispatcher jobs_class_1 8366143
scalar FogSequentialForward.fog[7].dispatcher remoteJobs_class_1 6925293
scalar FogSequentialForward.fog[7].dispatcher localJobs_class_1 1156308
scalar FogSequentialForward.fog[7].dispatcher droppedJobsSLA_class_1 284542
scalar FogSequentialForward.fog[7].server[0] rho 0.99997770786285
scalar FogSequentialForward.fog[7].server[0] congestionRatio 0
scalar FogSequentialForward.fog[7].server[0] totalJobs 1156308
scalar FogSequentialForward.fog[7].server[0] droppedJobsQueue 6773
scalar FogSequentialForward.fog[7].server[0] droppedJobsTimout 0
scalar FogSequentialForward.fog[7].server[0] droppedJobsSLA 626969
scalar FogSequentialForward.fog[7].server[0] droppedJobsTotal 633742
scalar FogSequentialForward.fog[8].dispatcher localJobs 1156834
scalar FogSequentialForward.fog[8].dispatcher internalJobs 1440973
scalar FogSequentialForward.fog[8].dispatcher externalJobs 6927242
scalar FogSequentialForward.fog[8].dispatcher remoteJobs 6925329
scalar FogSequentialForward.fog[8].dispatcher probeQueries 0
scalar FogSequentialForward.fog[8].dispatcher probeAnswers 0
scalar FogSequentialForward.fog[8].dispatcher droppedJobsSLA 286052
scalar FogSequentialForward.fog[8].dispatcher jobs_class_1 8368215
scalar FogSequentialForward.fog[8].dispatcher remoteJobs_class_1 6925329
scalar FogSequentialForward.fog[8].dispatcher localJobs_class_1 1156834
scalar FogSequentialForward.fog[8].dispatcher droppedJobsSLA_class_1 286052
scalar FogSequentialForward.fog[8].server[0] rho 0.99998050928116
scalar FogSequentialForward.fog[8].server[0] congestionRatio 0
scalar FogSequentialForward.fog[8].server[0] totalJobs 1156834
scalar FogSequentialForward.fog[8].server[0] droppedJobsQueue 6827
scalar FogSequentialForward.fog[8].server[0] droppedJobsTimout 0
scalar FogSequentialForward.fog[8].server[0] droppedJobsSLA 626884
scalar FogSequentialForward.fog[8].server[0] droppedJobsTotal 633711
scalar FogSequentialForward.fog[9].dispatcher localJobs 1157374
scalar FogSequentialForward.fog[9].dispatcher internalJobs 1442299
scalar FogSequentialForward.fog[9].dispatcher externalJobs 6929192
scalar FogSequentialForward.fog[9].dispatcher remoteJobs 6928157
scalar FogSequentialForward.fog[9].dispatcher probeQueries 0
scalar FogSequentialForward.fog[9].dispatcher probeAnswers 0
scalar FogSequentialForward.fog[9].dispatcher droppedJobsSLA 285960
scalar FogSequentialForward.fog[9].dispatcher jobs_class_1 8371491
scalar FogSequentialForward.fog[9].dispatcher remoteJobs_class_1 6928157
scalar FogSequentialForward.fog[9].dispatcher localJobs_class_1 1157374
scalar FogSequentialForward.fog[9].dispatcher droppedJobsSLA_class_1 285960
scalar FogSequentialForward.fog[9].server[0] rho 0.99997901916504
scalar FogSequentialForward.fog[9].server[0] congestionRatio 0
scalar FogSequentialForward.fog[9].server[0] totalJobs 1157374
scalar FogSequentialForward.fog[9].server[0] droppedJobsQueue 6759
scalar FogSequentialForward.fog[9].server[0] droppedJobsTimout 0
scalar FogSequentialForward.fog[9].server[0] droppedJobsSLA 627330
scalar FogSequentialForward.fog[9].server[0] droppedJobsTotal 634089
scalar FogSequentialForward.fog[10].dispatcher localJobs 1157225
scalar FogSequentialForward.fog[10].dispatcher internalJobs 1441999
scalar FogSequentialForward.fog[10].dispatcher externalJobs 6931705
scalar FogSequentialForward.fog[10].dispatcher remoteJobs 6929962
scalar FogSequentialForward.fog[10].dispatcher probeQueries 0
scalar FogSequentialForward.fog[10].dispatcher probeAnswers 0
scalar FogSequentialForward.fog[10].dispatcher droppedJobsSLA 286517
scalar FogSequentialForward.fog[10].dispatcher jobs_class_1 8373704
scalar FogSequentialForward.fog[10].dispatcher remoteJobs_class_1 6929962
scalar FogSequentialForward.fog[10].dispatcher localJobs_class_1 1157225
scalar FogSequentialForward.fog[10].dispatcher droppedJobsSLA_class_1 286517
scalar FogSequentialForward.fog[10].server[0] rho 0.99997860193253
scalar FogSequentialForward.fog[10].server[0] congestionRatio 0
scalar FogSequentialForward.fog[10].server[0] totalJobs 1157225
scalar FogSequentialForward.fog[10].server[0] droppedJobsQueue 6867
scalar FogSequentialForward.fog[10].server[0] droppedJobsTimout 0
scalar FogSequentialForward.fog[10].server[0] droppedJobsSLA 627383
scalar FogSequentialForward.fog[10].server[0] droppedJobsTotal 634250
scalar FogSequentialForward.fog[11].dispatcher localJobs 1156495
scalar FogSequentialForward.fog[11].dispatcher internalJobs 1441873
scalar FogSequentialForward.fog[11].dispatcher externalJobs 6927136
scalar FogSequentialForward.fog[11].dispatcher remoteJobs 6926622
scalar FogSequentialForward.fog[11].dispatcher probeQueries 0
scalar FogSequentialForward.fog[11].dispatcher probeAnswers 0
scalar FogSequentialForward.fog[11].dispatcher droppedJobsSLA 285892
scalar FogSequentialForward.fog[11].dispatcher jobs_class_1 8369009
scalar FogSequentialForward.fog[11].dispatcher remoteJobs_class_1 6926622
scalar FogSequentialForward.fog[11].dispatcher localJobs_class_1 1156495
scalar FogSequentialForward.fog[11].dispatcher droppedJobsSLA_class_1 285892
scalar FogSequentialForward.fog[11].server[0] rho 0.99997538328171
scalar FogSequentialForward.fog[11].server[0] congestionRatio 0
scalar FogSequentialForward.fog[11].server[0] totalJobs 1156495
scalar FogSequentialForward.fog[11].server[0] droppedJobsQueue 6701
scalar FogSequentialForward.fog[11].server[0] droppedJobsTimout 0
scalar FogSequentialForward.fog[11].server[0] droppedJobsSLA 627422
scalar FogSequentialForward.fog[11].server[0] droppedJobsTotal 634123
scalar FogSequentialForward.fog[12].dispatcher localJobs 1157089
scalar FogSequentialForward.fog[12].dispatcher internalJobs 1442840
scalar FogSequentialForward.fog[12].dispatcher externalJobs 6930148
scalar FogSequentialForward.fog[12].dispatcher remoteJobs 6930465
scalar FogSequentialForward.fog[12].dispatcher probeQueries 0
scalar FogSequentialForward.fog[12].dispatcher probeAnswers 0
scalar FogSequentialForward.fog[12].dispatcher droppedJobsSLA 285434
scalar FogSequentialForward.fog[12].dispatcher jobs_class_1 8372988
scalar FogSequentialForward.fog[12].dispatcher remoteJobs_class_1 6930465
scalar FogSequentialForward.fog[12].dispatcher localJobs_class_1 1157089
scalar FogSequentialForward.fog[12].dispatcher droppedJobsSLA_class_1 285434
scalar FogSequentialForward.fog[12].server[0] rho 0.9999760389328
scalar FogSequentialForward.fog[12].server[0] congestionRatio 0
scalar FogSequentialForward.fog[12].server[0] totalJobs 1157089
scalar FogSequentialForward.fog[12].server[0] droppedJobsQueue 6774
scalar FogSequentialForward.fog[12].server[0] droppedJobsTimout 0
scalar FogSequentialForward.fog[12].server[0] droppedJobsSLA 627681
scalar FogSequentialForward.fog[12].server[0] droppedJobsTotal 634455
scalar FogSequentialForward.fog[13].dispatcher localJobs 1157152
scalar FogSequentialForward.fog[13].dispatcher internalJobs 1443073
scalar FogSequentialForward.fog[13].dispatcher externalJobs 6925196
scalar FogSequentialForward.fog[13].dispatcher remoteJobs 6925410
scalar FogSequentialForward.fog[13].dispatcher probeQueries 0
scalar FogSequentialForward.fog[13].dispatcher probeAnswers 0
scalar FogSequentialForward.fog[13].dispatcher droppedJobsSLA 285707
scalar FogSequentialForward.fog[13].dispatcher jobs_class_1 8368269
scalar FogSequentialForward.fog[13].dispatcher remoteJobs_class_1 6925410
scalar FogSequentialForward.fog[13].dispatcher localJobs_class_1 1157152
scalar FogSequentialForward.fog[13].dispatcher droppedJobsSLA_class_1 285707
scalar FogSequentialForward.fog[13].server[0] rho 0.99997961521149
scalar FogSequentialForward.fog[13].server[0] congestionRatio 0
scalar FogSequentialForward.fog[13].server[0] totalJobs 1157152
scalar FogSequentialForward.fog[13].server[0] droppedJobsQueue 6722
scalar FogSequentialForward.fog[13].server[0] droppedJobsTimout 0
scalar FogSequentialForward.fog[13].server[0] droppedJobsSLA 627528
scalar FogSequentialForward.fog[13].server[0] droppedJobsTotal 634250
scalar FogSequentialForward.fog[14].dispatcher localJobs 1156932
scalar FogSequentialForward.fog[14].dispatcher internalJobs 1444250
scalar FogSequentialForward.fog[14].dispatcher externalJobs 6929939
scalar FogSequentialForward.fog[14].dispatcher remoteJobs 6931298
scalar FogSequentialForward.fog[14].dispatcher probeQueries 0
scalar FogSequentialForward.fog[14].dispatcher probeAnswers 0
scalar FogSequentialForward.fog[14].dispatcher droppedJobsSLA 285959
scalar FogSequentialForward.fog[14].dispatcher jobs_class_1 8374189
scalar FogSequentialForward.fog[14].dispatcher remoteJobs_class_1 6931298
scalar FogSequentialForward.fog[14].dispatcher localJobs_class_1 1156932
scalar FogSequentialForward.fog[14].dispatcher droppedJobsSLA_class_1 285959
scalar FogSequentialForward.fog[14].server[0] rho 0.99997770786285
scalar FogSequentialForward.fog[14].server[0] congestionRatio 0
scalar FogSequentialForward.fog[14].server[0] totalJobs 1156932
scalar FogSequentialForward.fog[14].server[0] droppedJobsQueue 6647
scalar FogSequentialForward.fog[14].server[0] droppedJobsTimout 0
scalar FogSequentialForward.fog[14].server[0] droppedJobsSLA 627713
scalar FogSequentialForward.fog[14].server[0] droppedJobsTotal 634360
scalar FogSequentialForward.fog[15].dispatcher localJobs 1157728
scalar FogSequentialForward.fog[15].dispatcher internalJobs 1444215
scalar FogSequentialForward.fog[15].dispatcher externalJobs 6928545
scalar FogSequentialForward.fog[15].dispatcher remoteJobs 6929038
scalar FogSequentialForward.fog[15].dispatcher probeQueries 0
scalar FogSequentialForward.fog[15].dispatcher probeAnswers 0
scalar FogSequentialForward.fog[15].dispatcher droppedJobsSLA 285994
scalar FogSequentialForward.fog[15].dispatcher jobs_class_1 8372760
scalar FogSequentialForward.fog[15].dispatcher remoteJobs_class_1 6929038
scalar FogSequentialForward.fog[15].dispatcher localJobs_class_1 1157728
scalar FogSequentialForward.fog[15].dispatcher droppedJobsSLA_class_1 285994
scalar FogSequentialForward.fog[15].server[0] rho 0.99997609853745
scalar FogSequentialForward.fog[15].server[0] congestionRatio 0
scalar FogSequentialForward.fog[15].server[0] totalJobs 1157728
scalar FogSequentialForward.fog[15].server[0] droppedJobsQueue 6838
scalar FogSequentialForward.fog[15].server[0] droppedJobsTimout 0
scalar FogSequentialForward.fog[15].server[0] droppedJobsSLA 627978
scalar FogSequentialForward.fog[15].server[0] droppedJobsTotal 634816
scalar FogSequentialForward.fog[16].dispatcher localJobs 1157589
scalar FogSequentialForward.fog[16].dispatcher internalJobs 1440065
scalar FogSequentialForward.fog[16].dispatcher externalJobs 6927966
scalar FogSequentialForward.fog[16].dispatcher remoteJobs 6924693
scalar FogSequentialForward.fog[16].dispatcher probeQueries 0
scalar FogSequentialForward.fog[16].dispatcher probeAnswers 0
scalar FogSequentialForward.fog[16].dispatcher droppedJobsSLA 285749
scalar FogSequentialForward.fog[16].dispatcher jobs_class_1 8368031
scalar FogSequentialForward.fog[16].dispatcher remoteJobs_class_1 6924693
scalar FogSequentialForward.fog[16].dispatcher localJobs_class_1 1157589
scalar FogSequentialForward.fog[16].dispatcher droppedJobsSLA_class_1 285749
scalar FogSequentialForward.fog[16].server[0] rho 0.99997568130493
scalar FogSequentialForward.fog[16].server[0] congestionRatio 0
scalar FogSequentialForward.fog[16].server[0] totalJobs 1157589
scalar FogSequentialForward.fog[16].server[0] droppedJobsQueue 6717
scalar FogSequentialForward.fog[16].server[0] droppedJobsTimout 0
scalar FogSequentialForward.fog[16].server[0] droppedJobsSLA 628235
scalar FogSequentialForward.fog[16].server[0] droppedJobsTotal 634952
scalar FogSequentialForward.fog[17].dispatcher localJobs 1156880
scalar FogSequentialForward.fog[17].dispatcher internalJobs 1441486
scalar FogSequentialForward.fog[17].dispatcher externalJobs 6927969
scalar FogSequentialForward.fog[17].dispatcher remoteJobs 6927624
scalar FogSequentialForward.fog[17].dispatcher probeQueries 0
scalar FogSequentialForward.fog[17].dispatcher probeAnswers 0
scalar FogSequentialForward.fog[17].dispatcher droppedJobsSLA 284951
scalar FogSequentialForward.fog[17].dispatcher jobs_class_1 8369455
scalar FogSequentialForward.fog[17].dispatcher remoteJobs_class_1 6927624
scalar FogSequentialForward.fog[17].dispatcher localJobs_class_1 1156880
scalar FogSequentialForward.fog[17].dispatcher droppedJobsSLA_class_1 284951
scalar FogSequentialForward.fog[17].server[0] rho 0.99997574090958
scalar FogSequentialForward.fog[17].server[0] congestionRatio 0
scalar FogSequentialForward.fog[17].server[0] totalJobs 1156880
scalar FogSequentialForward.fog[17].server[0] droppedJobsQueue 6718
scalar FogSequentialForward.fog[17].server[0] droppedJobsTimout 0
scalar FogSequentialForward.fog[17].server[0] droppedJobsSLA 626854
scalar FogSequentialForward.fog[17].server[0] droppedJobsTotal 633572
scalar FogSequentialForward.fog[18].dispatcher localJobs 1157060
scalar FogSequentialForward.fog[18].dispatcher internalJobs 1440717
scalar FogSequentialForward.fog[18].dispatcher externalJobs 6928303
scalar FogSequentialForward.fog[18].dispatcher remoteJobs 6926761
scalar FogSequentialForward.fog[18].dispatcher probeQueries 0
scalar FogSequentialForward.fog[18].dispatcher probeAnswers 0
scalar FogSequentialForward.fog[18].dispatcher droppedJobsSLA 285199
scalar FogSequentialForward.fog[18].dispatcher jobs_class_1 8369020
scalar FogSequentialForward.fog[18].dispatcher remoteJobs_class_1 6926761
scalar FogSequentialForward.fog[18].dispatcher localJobs_class_1 1157060
scalar FogSequentialForward.fog[18].dispatcher droppedJobsSLA_class_1 285199
scalar FogSequentialForward.fog[18].server[0] rho 0.99997699260712
scalar FogSequentialForward.fog[18].server[0] congestionRatio 0
scalar FogSequentialForward.fog[18].server[0] totalJobs 1157060
scalar FogSequentialForward.fog[18].server[0] droppedJobsQueue 6419
scalar FogSequentialForward.fog[18].server[0] droppedJobsTimout 0
scalar FogSequentialForward.fog[18].server[0] droppedJobsSLA 627842
scalar FogSequentialForward.fog[18].server[0] droppedJobsTotal 634261
scalar FogSequentialForward.fog[19].dispatcher localJobs 1157375
scalar FogSequentialForward.fog[19].dispatcher internalJobs 1441697
scalar FogSequentialForward.fog[19].dispatcher externalJobs 6925458
scalar FogSequentialForward.fog[19].dispatcher remoteJobs 6924472
scalar FogSequentialForward.fog[19].dispatcher probeQueries 0
scalar FogSequentialForward.fog[19].dispatcher probeAnswers 0
scalar FogSequentialForward.fog[19].dispatcher droppedJobsSLA 285308
scalar FogSequentialForward.fog[19].dispatcher jobs_class_1 8367155
scalar FogSequentialForward.fog[19].dispatcher remoteJobs_class_1 6924472
scalar FogSequentialForward.fog[19].dispatcher localJobs_class_1 1157375
scalar FogSequentialForward.fog[19].dispatcher droppedJobsSLA_class_1 285308
scalar FogSequentialForward.fog[19].server[0] rho 0.99997735023499
scalar FogSequentialForward.fog[19].server[0] congestionRatio 0
scalar FogSequentialForward.fog[19].server[0] totalJobs 1157375
scalar FogSequentialForward.fog[19].server[0] droppedJobsQueue 6690
scalar FogSequentialForward.fog[19].server[0] droppedJobsTimout 0
scalar FogSequentialForward.fog[19].server[0] droppedJobsSLA 628006
scalar FogSequentialForward.fog[19].server[0] droppedJobsTotal 634696
scalar FogSequentialForward.fog[20].dispatcher localJobs 1156839
scalar FogSequentialForward.fog[20].dispatcher internalJobs 1441148
scalar FogSequentialForward.fog[20].dispatcher externalJobs 6927309
scalar FogSequentialForward.fog[20].dispatcher remoteJobs 6925417
scalar FogSequentialForward.fog[20].dispatcher probeQueries 0
scalar FogSequentialForward.fog[20].dispatcher probeAnswers 0
scalar FogSequentialForward.fog[20].dispatcher droppedJobsSLA 286201
scalar FogSequentialForward.fog[20].dispatcher jobs_class_1 8368457
scalar FogSequentialForward.fog[20].dispatcher remoteJobs_class_1 6925417
scalar FogSequentialForward.fog[20].dispatcher localJobs_class_1 1156839
scalar FogSequentialForward.fog[20].dispatcher droppedJobsSLA_class_1 286201
scalar FogSequentialForward.fog[20].server[0] rho 0.99997919797897
scalar FogSequentialForward.fog[20].server[0] congestionRatio 0
scalar FogSequentialForward.fog[20].server[0] totalJobs 1156839
scalar FogSequentialForward.fog[20].server[0] droppedJobsQueue 6730
scalar FogSequentialForward.fog[20].server[0] droppedJobsTimout 0
scalar FogSequentialForward.fog[20].server[0] droppedJobsSLA 627534
scalar FogSequentialForward.fog[20].server[0] droppedJobsTotal 634264
scalar FogSequentialForward.fog[21].dispatcher localJobs 1156603
scalar FogSequentialForward.fog[21].dispatcher internalJobs 1442482
scalar FogSequentialForward.fog[21].dispatcher externalJobs 6922161
scalar FogSequentialForward.fog[21].dispatcher remoteJobs 6922997
scalar FogSequentialForward.fog[21].dispatcher probeQueries 0
scalar FogSequentialForward.fog[21].dispatcher probeAnswers 0
scalar FogSequentialForward.fog[21].dispatcher droppedJobsSLA 285043
scalar FogSequentialForward.fog[21].dispatcher jobs_class_1 8364643
scalar FogSequentialForward.fog[21].dispatcher remoteJobs_class_1 6922997
scalar FogSequentialForward.fog[21].dispatcher localJobs_class_1 1156603
scalar FogSequentialForward.fog[21].dispatcher droppedJobsSLA_class_1 285043
scalar FogSequentialForward.fog[21].server[0] rho 0.99997532367706
scalar FogSequentialForward.fog[21].server[0] congestionRatio 0
scalar FogSequentialForward.fog[21].server[0] totalJobs 1156603
scalar FogSequentialForward.fog[21].server[0] droppedJobsQueue 6756
scalar FogSequentialForward.fog[21].server[0] droppedJobsTimout 0
scalar FogSequentialForward.fog[21].server[0] droppedJobsSLA 627392
scalar FogSequentialForward.fog[21].server[0] droppedJobsTotal 634148
scalar FogSequentialForward.fog[22].dispatcher localJobs 1157173
scalar FogSequentialForward.fog[22].dispatcher internalJobs 1440979
scalar FogSequentialForward.fog[22].dispatcher externalJobs 6925326
scalar FogSequentialForward.fog[22].dispatcher remoteJobs 6922720
scalar FogSequentialForward.fog[22].dispatcher probeQueries 0
scalar FogSequentialForward.fog[22].dispatcher probeAnswers 0
scalar FogSequentialForward.fog[22].dispatcher droppedJobsSLA 286412
scalar FogSequentialForward.fog[22].dispatcher jobs_class_1 8366305
scalar FogSequentialForward.fog[22].dispatcher remoteJobs_class_1 6922720
scalar FogSequentialForward.fog[22].dispatcher localJobs_class_1 1157173
scalar FogSequentialForward.fog[22].dispatcher droppedJobsSLA_class_1 286412
scalar FogSequentialForward.fog[22].server[0] rho 0.99998044967651
scalar FogSequentialForward.fog[22].server[0] congestionRatio 0
scalar FogSequentialForward.fog[22].server[0] totalJobs 1157173
scalar FogSequentialForward.fog[22].server[0] droppedJobsQueue 6751
scalar FogSequentialForward.fog[22].server[0] droppedJobsTimout 0
scalar FogSequentialForward.fog[22].server[0] droppedJobsSLA 627768
scalar FogSequentialForward.fog[22].server[0] droppedJobsTotal 634519
scalar FogSequentialForward.fog[23].dispatcher localJobs 1156485
scalar FogSequentialForward.fog[23].dispatcher internalJobs 1444278
scalar FogSequentialForward.fog[23].dispatcher externalJobs 6926582
scalar FogSequentialForward.fog[23].dispatcher remoteJobs 6929763
scalar FogSequentialForward.fog[23].dispatcher probeQueries 0
scalar FogSequentialForward.fog[23].dispatcher probeAnswers 0
scalar FogSequentialForward.fog[23].dispatcher droppedJobsSLA 284612
scalar FogSequentialForward.fog[23].dispatcher jobs_class_1 8370860
scalar FogSequentialForward.fog[23].dispatcher remoteJobs_class_1 6929763
scalar FogSequentialForward.fog[23].dispatcher localJobs_class_1 1156485
scalar FogSequentialForward.fog[23].dispatcher droppedJobsSLA_class_1 284612
scalar FogSequentialForward.fog[23].server[0] rho 0.99997270107269
scalar FogSequentialForward.fog[23].server[0] congestionRatio 0
scalar FogSequentialForward.fog[23].server[0] totalJobs 1156485
scalar FogSequentialForward.fog[23].server[0] droppedJobsQueue 6602
scalar FogSequentialForward.fog[23].server[0] droppedJobsTimout 0
scalar FogSequentialForward.fog[23].server[0] droppedJobsSLA 626615
scalar FogSequentialForward.fog[23].server[0] droppedJobsTotal 633217
scalar FogSequentialForward.fog[24].dispatcher localJobs 1158003
scalar FogSequentialForward.fog[24].dispatcher internalJobs 1443200
scalar FogSequentialForward.fog[24].dispatcher externalJobs 6926338
scalar FogSequentialForward.fog[24].dispatcher remoteJobs 6926905
scalar FogSequentialForward.fog[24].dispatcher probeQueries 0
scalar FogSequentialForward.fog[24].dispatcher probeAnswers 0
scalar FogSequentialForward.fog[24].dispatcher droppedJobsSLA 284630
scalar FogSequentialForward.fog[24].dispatcher jobs_class_1 8369538
scalar FogSequentialForward.fog[24].dispatcher remoteJobs_class_1 6926905
scalar FogSequentialForward.fog[24].dispatcher localJobs_class_1 1158003
scalar FogSequentialForward.fog[24].dispatcher droppedJobsSLA_class_1 284630
scalar FogSequentialForward.fog[24].server[0] rho 0.9999760389328
scalar FogSequentialForward.fog[24].server[0] congestionRatio 0
scalar FogSequentialForward.fog[24].server[0] totalJobs 1158003
scalar FogSequentialForward.fog[24].server[0] droppedJobsQueue 6803
scalar FogSequentialForward.fog[24].server[0] droppedJobsTimout 0
scalar FogSequentialForward.fog[24].server[0] droppedJobsSLA 627908
scalar FogSequentialForward.fog[24].server[0] droppedJobsTotal 634711
scalar FogSequentialForward.fog[25].dispatcher localJobs 1157353
scalar FogSequentialForward.fog[25].dispatcher internalJobs 1443329
scalar FogSequentialForward.fog[25].dispatcher externalJobs 6931287
scalar FogSequentialForward.fog[25].dispatcher remoteJobs 6930323
scalar FogSequentialForward.fog[25].dispatcher probeQueries 0
scalar FogSequentialForward.fog[25].dispatcher probeAnswers 0
scalar FogSequentialForward.fog[25].dispatcher droppedJobsSLA 286940
scalar FogSequentialForward.fog[25].dispatcher jobs_class_1 8374616
scalar FogSequentialForward.fog[25].dispatcher remoteJobs_class_1 6930323
scalar FogSequentialForward.fog[25].dispatcher localJobs_class_1 1157353
scalar FogSequentialForward.fog[25].dispatcher droppedJobsSLA_class_1 286940
scalar FogSequentialForward.fog[25].server[0] rho 0.99998080730438
scalar FogSequentialForward.fog[25].server[0] congestionRatio 0
scalar FogSequentialForward.fog[25].server[0] totalJobs 1157353
scalar FogSequentialForward.fog[25].server[0] droppedJobsQueue 6690
scalar FogSequentialForward.fog[25].server[0] droppedJobsTimout 0
scalar FogSequentialForward.fog[25].server[0] droppedJobsSLA 628436
scalar FogSequentialForward.fog[25].server[0] droppedJobsTotal 635126
scalar FogSequentialForward.fog[26].dispatcher localJobs 1156926
scalar FogSequentialForward.fog[26].dispatcher internalJobs 1443661
scalar FogSequentialForward.fog[26].dispatcher externalJobs 6928544
scalar FogSequentialForward.fog[26].dispatcher remoteJobs 6930492
scalar FogSequentialForward.fog[26].dispatcher probeQueries 0
scalar FogSequentialForward.fog[26].dispatcher probeAnswers 0
scalar FogSequentialForward.fog[26].dispatcher droppedJobsSLA 284787
scalar FogSequentialForward.fog[26].dispatcher jobs_class_1 8372205
scalar FogSequentialForward.fog[26].dispatcher remoteJobs_class_1 6930492
scalar FogSequentialForward.fog[26].dispatcher localJobs_class_1 1156926
scalar FogSequentialForward.fog[26].dispatcher droppedJobsSLA_class_1 284787
scalar FogSequentialForward.fog[26].server[0] rho 0.99997466802597
scalar FogSequentialForward.fog[26].server[0] congestionRatio 0
scalar FogSequentialForward.fog[26].server[0] totalJobs 1156926
scalar FogSequentialForward.fog[26].server[0] droppedJobsQueue 6752
scalar FogSequentialForward.fog[26].server[0] droppedJobsTimout 0
scalar FogSequentialForward.fog[26].server[0] droppedJobsSLA 627447
scalar FogSequentialForward.fog[26].server[0] droppedJobsTotal 634199
scalar FogSequentialForward.fog[27].dispatcher localJobs 1156968
scalar FogSequentialForward.fog[27].dispatcher internalJobs 1443096
scalar FogSequentialForward.fog[27].dispatcher externalJobs 6925662
scalar FogSequentialForward.fog[27].dispatcher remoteJobs 6925442
scalar FogSequentialForward.fog[27].dispatcher probeQueries 0
scalar FogSequentialForward.fog[27].dispatcher probeAnswers 0
scalar FogSequentialForward.fog[27].dispatcher droppedJobsSLA 286348
scalar FogSequentialForward.fog[27].dispatcher jobs_class_1 8368758
scalar FogSequentialForward.fog[27].dispatcher remoteJobs_class_1 6925442
scalar FogSequentialForward.fog[27].dispatcher localJobs_class_1 1156968
scalar FogSequentialForward.fog[27].dispatcher droppedJobsSLA_class_1 286348
scalar FogSequentialForward.fog[27].server[0] rho 0.99997693300247
scalar FogSequentialForward.fog[27].server[0] congestionRatio 0
scalar FogSequentialForward.fog[27].server[0] totalJobs 1156968
scalar FogSequentialForward.fog[27].server[0] droppedJobsQueue 6679
scalar FogSequentialForward.fog[27].server[0] droppedJobsTimout 0
scalar FogSequentialForward.fog[27].server[0] droppedJobsSLA 627444
scalar FogSequentialForward.fog[27].server[0] droppedJobsTotal 634123
scalar FogSequentialForward.fog[28].dispatcher localJobs 1157816
scalar FogSequentialForward.fog[28].dispatcher internalJobs 1442973
scalar FogSequentialForward.fog[28].dispatcher externalJobs 6928737
scalar FogSequentialForward.fog[28].dispatcher remoteJobs 6928713
scalar FogSequentialForward.fog[28].dispatcher probeQueries 0
scalar FogSequentialForward.fog[28].dispatcher probeAnswers 0
scalar FogSequentialForward.fog[28].dispatcher droppedJobsSLA 285181
scalar FogSequentialForward.fog[28].dispatcher jobs_class_1 8371710
scalar FogSequentialForward.fog[28].dispatcher remoteJobs_class_1 6928713
scalar FogSequentialForward.fog[28].dispatcher localJobs_class_1 1157816
scalar FogSequentialForward.fog[28].dispatcher droppedJobsSLA_class_1 285181
scalar FogSequentialForward.fog[28].server[0] rho 0.99997389316559
scalar FogSequentialForward.fog[28].server[0] congestionRatio 0
scalar FogSequentialForward.fog[28].server[0] totalJobs 1157816
scalar FogSequentialForward.fog[28].server[0] droppedJobsQueue 6741
scalar FogSequentialForward.fog[28].server[0] droppedJobsTimout 0
scalar FogSequentialForward.fog[28].server[0] droppedJobsSLA 628335
scalar FogSequentialForward.fog[28].server[0] droppedJobsTotal 635076
scalar FogSequentialForward.fog[29].dispatcher localJobs 1157110
scalar FogSequentialForward.fog[29].dispatcher internalJobs 1443419
scalar FogSequentialForward.fog[29].dispatcher externalJobs 6923289
scalar FogSequentialForward.fog[29].dispatcher remoteJobs 6924195
scalar FogSequentialForward.fog[29].dispatcher probeQueries 0
scalar FogSequentialForward.fog[29].dispatcher probeAnswers 0
scalar FogSequentialForward.fog[29].dispatcher droppedJobsSLA 285403
scalar FogSequentialForward.fog[29].dispatcher jobs_class_1 8366708
scalar FogSequentialForward.fog[29].dispatcher remoteJobs_class_1 6924195
scalar FogSequentialForward.fog[29].dispatcher localJobs_class_1 1157110
scalar FogSequentialForward.fog[29].dispatcher droppedJobsSLA_class_1 285403
scalar FogSequentialForward.fog[29].server[0] rho 0.9999783039093
scalar FogSequentialForward.fog[29].server[0] congestionRatio 0
scalar FogSequentialForward.fog[29].server[0] totalJobs 1157110
scalar FogSequentialForward.fog[29].server[0] droppedJobsQueue 6746
scalar FogSequentialForward.fog[29].server[0] droppedJobsTimout 0
scalar FogSequentialForward.fog[29].server[0] droppedJobsSLA 627539
scalar FogSequentialForward.fog[29].server[0] droppedJobsTotal 634285
scalar FogSequentialForward.fog[30].dispatcher localJobs 1156448
scalar FogSequentialForward.fog[30].dispatcher internalJobs 1444436
scalar FogSequentialForward.fog[30].dispatcher externalJobs 6925931
scalar FogSequentialForward.fog[30].dispatcher remoteJobs 6928270
scalar FogSequentialForward.fog[30].dispatcher probeQueries 0
scalar FogSequentialForward.fog[30].dispatcher probeAnswers 0
scalar FogSequentialForward.fog[30].dispatcher droppedJobsSLA 285649
scalar FogSequentialForward.fog[30].dispatcher jobs_class_1 8370367
scalar FogSequentialForward.fog[30].dispatcher remoteJobs_class_1 6928270
scalar FogSequentialForward.fog[30].dispatcher localJobs_class_1 1156448
scalar FogSequentialForward.fog[30].dispatcher droppedJobsSLA_class_1 285649
scalar FogSequentialForward.fog[30].server[0] rho 0.99997413158417
scalar FogSequentialForward.fog[30].server[0] congestionRatio 0
scalar FogSequentialForward.fog[30].server[0] totalJobs 1156448
scalar FogSequentialForward.fog[30].server[0] droppedJobsQueue 6736
scalar FogSequentialForward.fog[30].server[0] droppedJobsTimout 0
scalar FogSequentialForward.fog[30].server[0] droppedJobsSLA 626743
scalar FogSequentialForward.fog[30].server[0] droppedJobsTotal 633479
scalar FogSequentialForward.fog[31].dispatcher localJobs 1158901
scalar FogSequentialForward.fog[31].dispatcher internalJobs 1441899
scalar FogSequentialForward.fog[31].dispatcher externalJobs 6931829
scalar FogSequentialForward.fog[31].dispatcher remoteJobs 6929219
scalar FogSequentialForward.fog[31].dispatcher probeQueries 0
scalar FogSequentialForward.fog[31].dispatcher probeAnswers 0
scalar FogSequentialForward.fog[31].dispatcher droppedJobsSLA 285608
scalar FogSequentialForward.fog[31].dispatcher jobs_class_1 8373728
scalar FogSequentialForward.fog[31].dispatcher remoteJobs_class_1 6929219
scalar FogSequentialForward.fog[31].dispatcher localJobs_class_1 1158901
scalar FogSequentialForward.fog[31].dispatcher droppedJobsSLA_class_1 285608
scalar FogSequentialForward.fog[31].server[0] rho 0.99997717142105
scalar FogSequentialForward.fog[31].server[0] congestionRatio 0
scalar FogSequentialForward.fog[31].server[0] totalJobs 1158901
scalar FogSequentialForward.fog[31].server[0] droppedJobsQueue 6811
scalar FogSequentialForward.fog[31].server[0] droppedJobsTimout 0
scalar FogSequentialForward.fog[31].server[0] droppedJobsSLA 629040
scalar FogSequentialForward.fog[31].server[0] droppedJobsTotal 635851
scalar FogSequentialForward.fog[32].dispatcher localJobs 1157418
scalar FogSequentialForward.fog[32].dispatcher internalJobs 1442604
scalar FogSequentialForward.fog[32].dispatcher externalJobs 6923311
scalar FogSequentialForward.fog[32].dispatcher remoteJobs 6922924
scalar FogSequentialForward.fog[32].dispatcher probeQueries 0
scalar FogSequentialForward.fog[32].dispatcher probeAnswers 0
scalar FogSequentialForward.fog[32].dispatcher droppedJobsSLA 285573
scalar FogSequentialForward.fog[32].dispatcher jobs_class_1 8365915
scalar FogSequentialForward.fog[32].dispatcher remoteJobs_class_1 6922924
scalar FogSequentialForward.fog[32].dispatcher localJobs_class_1 1157418
scalar FogSequentialForward.fog[32].dispatcher droppedJobsSLA_class_1 285573
scalar FogSequentialForward.fog[32].server[0] rho 0.99997538328171
scalar FogSequentialForward.fog[32].server[0] congestionRatio 0
scalar FogSequentialForward.fog[32].server[0] totalJobs 1157418
scalar FogSequentialForward.fog[32].server[0] droppedJobsQueue 6813
scalar FogSequentialForward.fog[32].server[0] droppedJobsTimout 0
scalar FogSequentialForward.fog[32].server[0] droppedJobsSLA 628145
scalar FogSequentialForward.fog[32].server[0] droppedJobsTotal 634958
scalar FogSequentialForward.fog[33].dispatcher localJobs 1158030
scalar FogSequentialForward.fog[33].dispatcher internalJobs 1444180
scalar FogSequentialForward.fog[33].dispatcher externalJobs 6928752
scalar FogSequentialForward.fog[33].dispatcher remoteJobs 6929581
scalar FogSequentialForward.fog[33].dispatcher probeQueries 0
scalar FogSequentialForward.fog[33].dispatcher probeAnswers 0
scalar FogSequentialForward.fog[33].dispatcher droppedJobsSLA 285321
scalar FogSequentialForward.fog[33].dispatcher jobs_class_1 8372932
scalar FogSequentialForward.fog[33].dispatcher remoteJobs_class_1 6929581
scalar FogSequentialForward.fog[33].dispatcher localJobs_class_1 1158030
scalar FogSequentialForward.fog[33].dispatcher droppedJobsSLA_class_1 285321
scalar FogSequentialForward.fog[33].server[0] rho 0.9999772310257
scalar FogSequentialForward.fog[33].server[0] congestionRatio 0
scalar FogSequentialForward.fog[33].server[0] totalJobs 1158030
scalar FogSequentialForward.fog[33].server[0] droppedJobsQueue 6767
scalar FogSequentialForward.fog[33].server[0] droppedJobsTimout 0
scalar FogSequentialForward.fog[33].server[0] droppedJobsSLA 628521
scalar FogSequentialForward.fog[33].server[0] droppedJobsTotal 635288
scalar FogSequentialForward.fog[34].dispatcher localJobs 1156219
scalar FogSequentialForward.fog[34].dispatcher internalJobs 1443301
scalar FogSequentialForward.fog[34].dispatcher externalJobs 6921188
scalar FogSequentialForward.fog[34].dispatcher remoteJobs 6922869
scalar FogSequentialForward.fog[34].dispatcher probeQueries 0
scalar FogSequentialForward.fog[34].dispatcher probeAnswers 0
scalar FogSequentialForward.fog[34].dispatcher droppedJobsSLA 285401
scalar FogSequentialForward.fog[34].dispatcher jobs_class_1 8364489
scalar FogSequentialForward.fog[34].dispatcher remoteJobs_class_1 6922869
scalar FogSequentialForward.fog[34].dispatcher localJobs_class_1 1156219
scalar FogSequentialForward.fog[34].dispatcher droppedJobsSLA_class_1 285401
scalar FogSequentialForward.fog[34].server[0] rho 0.99997067451477
scalar FogSequentialForward.fog[34].server[0] congestionRatio 0
scalar FogSequentialForward.fog[34].server[0] totalJobs 1156219
scalar FogSequentialForward.fog[34].server[0] droppedJobsQueue 6607
scalar FogSequentialForward.fog[34].server[0] droppedJobsTimout 0
scalar FogSequentialForward.fog[34].server[0] droppedJobsSLA 627239
scalar FogSequentialForward.fog[34].server[0] droppedJobsTotal 633846
scalar FogSequentialForward.fog[35].dispatcher localJobs 1156740
scalar FogSequentialForward.fog[35].dispatcher internalJobs 1442647
scalar FogSequentialForward.fog[35].dispatcher externalJobs 6925532
scalar FogSequentialForward.fog[35].dispatcher remoteJobs 6925687
scalar FogSequentialForward.fog[35].dispatcher probeQueries 0
scalar FogSequentialForward.fog[35].dispatcher probeAnswers 0
scalar FogSequentialForward.fog[35].dispatcher droppedJobsSLA 285752
scalar FogSequentialForward.fog[35].dispatcher jobs_class_1 8368179
scalar FogSequentialForward.fog[35].dispatcher remoteJobs_class_1 6925687
scalar FogSequentialForward.fog[35].dispatcher localJobs_class_1 1156740
scalar FogSequentialForward.fog[35].dispatcher droppedJobsSLA_class_1 285752
scalar FogSequentialForward.fog[35].server[0] rho 0.9999777674675
scalar FogSequentialForward.fog[35].server[0] congestionRatio 0
scalar FogSequentialForward.fog[35].server[0] totalJobs 1156740
scalar FogSequentialForward.fog[35].server[0] droppedJobsQueue 6633
scalar FogSequentialForward.fog[35].server[0] droppedJobsTimout 0
scalar FogSequentialForward.fog[35].server[0] droppedJobsSLA 627415
scalar FogSequentialForward.fog[35].server[0] droppedJobsTotal 634048
scalar FogSequentialForward.fog[36].dispatcher localJobs 1157018
scalar FogSequentialForward.fog[36].dispatcher internalJobs 1444000
scalar FogSequentialForward.fog[36].dispatcher externalJobs 6928371
scalar FogSequentialForward.fog[36].dispatcher remoteJobs 6929854
scalar FogSequentialForward.fog[36].dispatcher probeQueries 0
scalar FogSequentialForward.fog[36].dispatcher probeAnswers 0
scalar FogSequentialForward.fog[36].dispatcher droppedJobsSLA 285499
scalar FogSequentialForward.fog[36].dispatcher jobs_class_1 8372371
scalar FogSequentialForward.fog[36].dispatcher remoteJobs_class_1 6929854
scalar FogSequentialForward.fog[36].dispatcher localJobs_class_1 1157018
scalar FogSequentialForward.fog[36].dispatcher droppedJobsSLA_class_1 285499
scalar FogSequentialForward.fog[36].server[0] rho 0.9999772310257
scalar FogSequentialForward.fog[36].server[0] congestionRatio 0
scalar FogSequentialForward.fog[36].server[0] totalJobs 1157018
scalar FogSequentialForward.fog[36].server[0] droppedJobsQueue 6666
scalar FogSequentialForward.fog[36].server[0] droppedJobsTimout 0
scalar FogSequentialForward.fog[36].server[0] droppedJobsSLA 627632
scalar FogSequentialForward.fog[36].server[0] droppedJobsTotal 634298
scalar FogSequentialForward.fog[37].dispatcher localJobs 1157222
scalar FogSequentialForward.fog[37].dispatcher internalJobs 1444686
scalar FogSequentialForward.fog[37].dispatcher externalJobs 6928698
scalar FogSequentialForward.fog[37].dispatcher remoteJobs 6930654
scalar FogSequentialForward.fog[37].dispatcher probeQueries 0
scalar FogSequentialForward.fog[37].dispatcher probeAnswers 0
scalar FogSequentialForward.fog[37].dispatcher droppedJobsSLA 285508
scalar FogSequentialForward.fog[37].dispatcher jobs_class_1 8373384
scalar FogSequentialForward.fog[37].dispatcher remoteJobs_class_1 6930654
scalar FogSequentialForward.fog[37].dispatcher localJobs_class_1 1157222
scalar FogSequentialForward.fog[37].dispatcher droppedJobsSLA_class_1 285508
scalar FogSequentialForward.fog[37].server[0] rho 0.99997472763062
scalar FogSequentialForward.fog[37].server[0] congestionRatio 0
scalar FogSequentialForward.fog[37].server[0] totalJobs 1157222
scalar FogSequentialForward.fog[37].server[0] droppedJobsQueue 6884
scalar FogSequentialForward.fog[37].server[0] droppedJobsTimout 0
scalar FogSequentialForward.fog[37].server[0] droppedJobsSLA 628364
scalar FogSequentialForward.fog[37].server[0] droppedJobsTotal 635248
scalar FogSequentialForward.fog[38].dispatcher localJobs 1157432
scalar FogSequentialForward.fog[38].dispatcher internalJobs 1440908
scalar FogSequentialForward.fog[38].dispatcher externalJobs 6931830
scalar FogSequentialForward.fog[38].dispatcher remoteJobs 6929316
scalar FogSequentialForward.fog[38].dispatcher probeQueries 0
scalar FogSequentialForward.fog[38].dispatcher probeAnswers 0
scalar FogSequentialForward.fog[38].dispatcher droppedJobsSLA 285990
scalar FogSequentialForward.fog[38].dispatcher jobs_class_1 8372738
scalar FogSequentialForward.fog[38].dispatcher remoteJobs_class_1 6929316
scalar FogSequentialForward.fog[38].dispatcher localJobs_class_1 1157432
scalar FogSequentialForward.fog[38].dispatcher droppedJobsSLA_class_1 285990
scalar FogSequentialForward.fog[38].server[0] rho 0.99997621774673
scalar FogSequentialForward.fog[38].server[0] congestionRatio 0
scalar FogSequentialForward.fog[38].server[0] totalJobs 1157432
scalar FogSequentialForward.fog[38].server[0] droppedJobsQueue 6706
scalar FogSequentialForward.fog[38].server[0] droppedJobsTimout 0
scalar FogSequentialForward.fog[38].server[0] droppedJobsSLA 628116
scalar FogSequentialForward.fog[38].server[0] droppedJobsTotal 634822
scalar FogSequentialForward.fog[39].dispatcher localJobs 1157299
scalar FogSequentialForward.fog[39].dispatcher internalJobs 1439819
scalar FogSequentialForward.fog[39].dispatcher externalJobs 6933063
scalar FogSequentialForward.fog[39].dispatcher remoteJobs 6929868
scalar FogSequentialForward.fog[39].dispatcher probeQueries 0
scalar FogSequentialForward.fog[39].dispatcher probeAnswers 0
scalar FogSequentialForward.fog[39].dispatcher droppedJobsSLA 285715
scalar FogSequentialForward.fog[39].dispatcher jobs_class_1 8372882
scalar FogSequentialForward.fog[39].dispatcher remoteJobs_class_1 6929868
scalar FogSequentialForward.fog[39].dispatcher localJobs_class_1 1157299
scalar FogSequentialForward.fog[39].dispatcher droppedJobsSLA_class_1 285715
scalar FogSequentialForward.fog[39].server[0] rho 0.9999732375145
scalar FogSequentialForward.fog[39].server[0] congestionRatio 0
scalar FogSequentialForward.fog[39].server[0] totalJobs 1157299
scalar FogSequentialForward.fog[39].server[0] droppedJobsQueue 6863
scalar FogSequentialForward.fog[39].server[0] droppedJobsTimout 0
scalar FogSequentialForward.fog[39].server[0] droppedJobsSLA 627630
scalar FogSequentialForward.fog[39].server[0] droppedJobsTotal 634493
scalar FogSequentialForward.fog[40].dispatcher localJobs 1157137
scalar FogSequentialForward.fog[40].dispatcher internalJobs 1441591
scalar FogSequentialForward.fog[40].dispatcher externalJobs 6925999
scalar FogSequentialForward.fog[40].dispatcher remoteJobs 6924830
scalar FogSequentialForward.fog[40].dispatcher probeQueries 0
scalar FogSequentialForward.fog[40].dispatcher probeAnswers 0
scalar FogSequentialForward.fog[40].dispatcher droppedJobsSLA 285623
scalar FogSequentialForward.fog[40].dispatcher jobs_class_1 8367590
scalar FogSequentialForward.fog[40].dispatcher remoteJobs_class_1 6924830
scalar FogSequentialForward.fog[40].dispatcher localJobs_class_1 1157137
scalar FogSequentialForward.fog[40].dispatcher droppedJobsSLA_class_1 285623
scalar FogSequentialForward.fog[40].server[0] rho 0.99997931718826
scalar FogSequentialForward.fog[40].server[0] congestionRatio 0
scalar FogSequentialForward.fog[40].server[0] totalJobs 1157137
scalar FogSequentialForward.fog[40].server[0] droppedJobsQueue 6737
scalar FogSequentialForward.fog[40].server[0] droppedJobsTimout 0
scalar FogSequentialForward.fog[40].server[0] droppedJobsSLA 627281
scalar FogSequentialForward.fog[40].server[0] droppedJobsTotal 634018
scalar FogSequentialForward.fog[41].dispatcher localJobs 1155645
scalar FogSequentialForward.fog[41].dispatcher internalJobs 1442675
scalar FogSequentialForward.fog[41].dispatcher externalJobs 6923526
scalar FogSequentialForward.fog[41].dispatcher remoteJobs 6925438
scalar FogSequentialForward.fog[41].dispatcher probeQueries 0
scalar FogSequentialForward.fog[41].dispatcher probeAnswers 0
scalar FogSequentialForward.fog[41].dispatcher droppedJobsSLA 285118
scalar FogSequentialForward.fog[41].dispatcher jobs_class_1 8366201
scalar FogSequentialForward.fog[41].dispatcher remoteJobs_class_1 6925438
scalar FogSequentialForward.fog[41].dispatcher localJobs_class_1 1155645
scalar FogSequentialForward.fog[41].dispatcher droppedJobsSLA_class_1 285118
scalar FogSequentialForward.fog[41].server[0] rho 0.99998235702515
scalar FogSequentialForward.fog[41].server[0] congestionRatio 0
scalar FogSequentialForward.fog[41].server[0] totalJobs 1155645
scalar FogSequentialForward.fog[41].server[0] droppedJobsQueue 6668
scalar FogSequentialForward.fog[41].server[0] droppedJobsTimout 0
scalar FogSequentialForward.fog[41].server[0] droppedJobsSLA 626666
scalar FogSequentialForward.fog[41].server[0] droppedJobsTotal 633334
scalar FogSequentialForward.fog[42].dispatcher localJobs 1155960
scalar FogSequentialForward.fog[42].dispatcher internalJobs 1442361
scalar FogSequentialForward.fog[42].dispatcher externalJobs 6923973
scalar FogSequentialForward.fog[42].dispatcher remoteJobs 6924673
scalar FogSequentialForward.fog[42].dispatcher probeQueries 0
scalar FogSequentialForward.fog[42].dispatcher probeAnswers 0
scalar FogSequentialForward.fog[42].dispatcher droppedJobsSLA 285701
scalar FogSequentialForward.fog[42].dispatcher jobs_class_1 8366334
scalar FogSequentialForward.fog[42].dispatcher remoteJobs_class_1 6924673
scalar FogSequentialForward.fog[42].dispatcher localJobs_class_1 1155960
scalar FogSequentialForward.fog[42].dispatcher droppedJobsSLA_class_1 285701
scalar FogSequentialForward.fog[42].server[0] rho 0.99997943639755
scalar FogSequentialForward.fog[42].server[0] congestionRatio 0
scalar FogSequentialForward.fog[42].server[0] totalJobs 1155960
scalar FogSequentialForward.fog[42].server[0] droppedJobsQueue 6614
scalar FogSequentialForward.fog[42].server[0] droppedJobsTimout 0
scalar FogSequentialForward.fog[42].server[0] droppedJobsSLA 626506
scalar FogSequentialForward.fog[42].server[0] droppedJobsTotal 633120
scalar FogSequentialForward.fog[43].dispatcher localJobs 1157423
scalar FogSequentialForward.fog[43].dispatcher internalJobs 1441812
scalar FogSequentialForward.fog[43].dispatcher externalJobs 6927079
scalar FogSequentialForward.fog[43].dispatcher remoteJobs 6925344
scalar FogSequentialForward.fog[43].dispatcher probeQueries 0
scalar FogSequentialForward.fog[43].dispatcher probeAnswers 0
scalar FogSequentialForward.fog[43].dispatcher droppedJobsSLA 286124
scalar FogSequentialForward.fog[43].dispatcher jobs_class_1 8368891
scalar FogSequentialForward.fog[43].dispatcher remoteJobs_class_1 6925344
scalar FogSequentialForward.fog[43].dispatcher localJobs_class_1 1157423
scalar FogSequentialForward.fog[43].dispatcher droppedJobsSLA_class_1 286124
scalar FogSequentialForward.fog[43].server[0] rho 0.99997889995575
scalar FogSequentialForward.fog[43].server[0] congestionRatio 0
scalar FogSequentialForward.fog[43].server[0] totalJobs 1157423
scalar FogSequentialForward.fog[43].server[0] droppedJobsQueue 6683
scalar FogSequentialForward.fog[43].server[0] droppedJobsTimout 0
scalar FogSequentialForward.fog[43].server[0] droppedJobsSLA 628153
scalar FogSequentialForward.fog[43].server[0] droppedJobsTotal 634836
scalar FogSequentialForward.fog[44].dispatcher localJobs 1156827
scalar FogSequentialForward.fog[44].dispatcher internalJobs 1443907
scalar FogSequentialForward.fog[44].dispatcher externalJobs 6926900
scalar FogSequentialForward.fog[44].dispatcher remoteJobs 6928245
scalar FogSequentialForward.fog[44].dispatcher probeQueries 0
scalar FogSequentialForward.fog[44].dispatcher probeAnswers 0
scalar FogSequentialForward.fog[44].dispatcher droppedJobsSLA 285735
scalar FogSequentialForward.fog[44].dispatcher jobs_class_1 8370807
scalar FogSequentialForward.fog[44].dispatcher remoteJobs_class_1 6928245
scalar FogSequentialForward.fog[44].dispatcher localJobs_class_1 1156827
scalar FogSequentialForward.fog[44].dispatcher droppedJobsSLA_class_1 285735
scalar FogSequentialForward.fog[44].server[0] rho 0.99997538328171
scalar FogSequentialForward.fog[44].server[0] congestionRatio 0
scalar FogSequentialForward.fog[44].server[0] totalJobs 1156827
scalar FogSequentialForward.fog[44].server[0] droppedJobsQueue 6824
scalar FogSequentialForward.fog[44].server[0] droppedJobsTimout 0
scalar FogSequentialForward.fog[44].server[0] droppedJobsSLA 627058
scalar FogSequentialForward.fog[44].server[0] droppedJobsTotal 633882
scalar FogSequentialForward.fog[45].dispatcher localJobs 1157080
scalar FogSequentialForward.fog[45].dispatcher internalJobs 1442117
scalar FogSequentialForward.fog[45].dispatcher externalJobs 6935312
scalar FogSequentialForward.fog[45].dispatcher remoteJobs 6934705
scalar FogSequentialForward.fog[45].dispatcher probeQueries 0
scalar FogSequentialForward.fog[45].dispatcher probeAnswers 0
scalar FogSequentialForward.fog[45].dispatcher droppedJobsSLA 285644
scalar FogSequentialForward.fog[45].dispatcher jobs_class_1 8377429
scalar FogSequentialForward.fog[45].dispatcher remoteJobs_class_1 6934705
scalar FogSequentialForward.fog[45].dispatcher localJobs_class_1 1157080
scalar FogSequentialForward.fog[45].dispatcher droppedJobsSLA_class_1 285644
scalar FogSequentialForward.fog[45].server[0] rho 0.9999788403511
scalar FogSequentialForward.fog[45].server[0] congestionRatio 0
scalar FogSequentialForward.fog[45].server[0] totalJobs 1157080
scalar FogSequentialForward.fog[45].server[0] droppedJobsQueue 6707
scalar FogSequentialForward.fog[45].server[0] droppedJobsTimout 0
scalar FogSequentialForward.fog[45].server[0] droppedJobsSLA 627914
scalar FogSequentialForward.fog[45].server[0] droppedJobsTotal 634621
scalar FogSequentialForward.fog[46].dispatcher localJobs 1157361
scalar FogSequentialForward.fog[46].dispatcher internalJobs 1440779
scalar FogSequentialForward.fog[46].dispatcher externalJobs 6930755
scalar FogSequentialForward.fog[46].dispatcher remoteJobs 6928331
scalar FogSequentialForward.fog[46].dispatcher probeQueries 0
scalar FogSequentialForward.fog[46].dispatcher probeAnswers 0
scalar FogSequentialForward.fog[46].dispatcher droppedJobsSLA 285842
scalar FogSequentialForward.fog[46].dispatcher jobs_class_1 8371534
scalar FogSequentialForward.fog[46].dispatcher remoteJobs_class_1 6928331
scalar FogSequentialForward.fog[46].dispatcher localJobs_class_1 1157361
scalar FogSequentialForward.fog[46].dispatcher droppedJobsSLA_class_1 285842
scalar FogSequentialForward.fog[46].server[0] rho 0.99997168779373
scalar FogSequentialForward.fog[46].server[0] congestionRatio 0
scalar FogSequentialForward.fog[46].server[0] totalJobs 1157361
scalar FogSequentialForward.fog[46].server[0] droppedJobsQueue 6744
scalar FogSequentialForward.fog[46].server[0] droppedJobsTimout 0
scalar FogSequentialForward.fog[46].server[0] droppedJobsSLA 628499
scalar FogSequentialForward.fog[46].server[0] droppedJobsTotal 635243
scalar FogSequentialForward.fog[47].dispatcher localJobs 1156567
scalar FogSequentialForward.fog[47].dispatcher internalJobs 1444195
scalar FogSequentialForward.fog[47].dispatcher externalJobs 6923661
scalar FogSequentialForward.fog[47].dispatcher remoteJobs 6925542
scalar FogSequentialForward.fog[47].dispatcher probeQueries 0
scalar FogSequentialForward.fog[47].dispatcher probeAnswers 0
scalar FogSequentialForward.fog[47].dispatcher droppedJobsSLA 285747
scalar FogSequentialForward.fog[47].dispatcher jobs_class_1 8367856
scalar FogSequentialForward.fog[47].dispatcher remoteJobs_class_1 6925542
scalar FogSequentialForward.fog[47].dispatcher localJobs_class_1 1156567
scalar FogSequentialForward.fog[47].dispatcher droppedJobsSLA_class_1 285747
scalar FogSequentialForward.fog[47].server[0] rho 0.99997693300247
scalar FogSequentialForward.fog[47].server[0] congestionRatio 0
scalar FogSequentialForward.fog[47].server[0] totalJobs 1156567
scalar FogSequentialForward.fog[47].server[0] droppedJobsQueue 6722
scalar FogSequentialForward.fog[47].server[0] droppedJobsTimout 0
scalar FogSequentialForward.fog[47].server[0] droppedJobsSLA 626449
scalar FogSequentialForward.fog[47].server[0] droppedJobsTotal 633171
scalar FogSequentialForward.fog[48].dispatcher localJobs 1157795
scalar FogSequentialForward.fog[48].dispatcher internalJobs 1440513
scalar FogSequentialForward.fog[48].dispatcher externalJobs 6927704
scalar FogSequentialForward.fog[48].dispatcher remoteJobs 6925236
scalar FogSequentialForward.fog[48].dispatcher probeQueries 0
scalar FogSequentialForward.fog[48].dispatcher probeAnswers 0
scalar FogSequentialForward.fog[48].dispatcher droppedJobsSLA 285186
scalar FogSequentialForward.fog[48].dispatcher jobs_class_1 8368217
scalar FogSequentialForward.fog[48].dispatcher remoteJobs_class_1 6925236
scalar FogSequentialForward.fog[48].dispatcher localJobs_class_1 1157795
scalar FogSequentialForward.fog[48].dispatcher droppedJobsSLA_class_1 285186
scalar FogSequentialForward.fog[48].server[0] rho 0.99997705221176
scalar FogSequentialForward.fog[48].server[0] congestionRatio 0
scalar FogSequentialForward.fog[48].server[0] totalJobs 1157795
scalar FogSequentialForward.fog[48].server[0] droppedJobsQueue 6743
scalar FogSequentialForward.fog[48].server[0] droppedJobsTimout 0
scalar FogSequentialForward.fog[48].server[0] droppedJobsSLA 628116
scalar FogSequentialForward.fog[48].server[0] droppedJobsTotal 634859
scalar FogSequentialForward.fog[49].dispatcher localJobs 1156866
scalar FogSequentialForward.fog[49].dispatcher internalJobs 1441116
scalar FogSequentialForward.fog[49].dispatcher externalJobs 6925780
scalar FogSequentialForward.fog[49].dispatcher remoteJobs 6924656
scalar FogSequentialForward.fog[49].dispatcher probeQueries 0
scalar FogSequentialForward.fog[49].dispatcher probeAnswers 0
scalar FogSequentialForward.fog[49].dispatcher droppedJobsSLA 285374
scalar FogSequentialForward.fog[49].dispatcher jobs_class_1 8366896
scalar FogSequentialForward.fog[49].dispatcher remoteJobs_class_1 6924656
scalar FogSequentialForward.fog[49].dispatcher localJobs_class_1 1156866
scalar FogSequentialForward.fog[49].dispatcher droppedJobsSLA_class_1 285374
scalar FogSequentialForward.fog[49].server[0] rho 0.99998158216476
scalar FogSequentialForward.fog[49].server[0] congestionRatio 0
scalar FogSequentialForward.fog[49].server[0] totalJobs 1156866
scalar FogSequentialForward.fog[49].server[0] droppedJobsQueue 6732
scalar FogSequentialForward.fog[49].server[0] droppedJobsTimout 0
scalar FogSequentialForward.fog[49].server[0] droppedJobsSLA 627924
scalar FogSequentialForward.fog[49].server[0] droppedJobsTotal 634656
scalar FogSequentialForward.fog[50].dispatcher localJobs 1157514
scalar FogSequentialForward.fog[50].dispatcher internalJobs 1443363
scalar FogSequentialForward.fog[50].dispatcher externalJobs 6931656
scalar FogSequentialForward.fog[50].dispatcher remoteJobs 6932546
scalar FogSequentialForward.fog[50].dispatcher probeQueries 0
scalar FogSequentialForward.fog[50].dispatcher probeAnswers 0
scalar FogSequentialForward.fog[50].dispatcher droppedJobsSLA 284959
scalar FogSequentialForward.fog[50].dispatcher jobs_class_1 8375019
scalar FogSequentialForward.fog[50].dispatcher remoteJobs_class_1 6932546
scalar FogSequentialForward.fog[50].dispatcher localJobs_class_1 1157514
scalar FogSequentialForward.fog[50].dispatcher droppedJobsSLA_class_1 284959
scalar FogSequentialForward.fog[50].server[0] rho 0.99997806549072
scalar FogSequentialForward.fog[50].server[0] congestionRatio 0
scalar FogSequentialForward.fog[50].server[0] totalJobs 1157514
scalar FogSequentialForward.fog[50].server[0] droppedJobsQueue 6733
scalar FogSequentialForward.fog[50].server[0] droppedJobsTimout 0
scalar FogSequentialForward.fog[50].server[0] droppedJobsSLA 628146
scalar FogSequentialForward.fog[50].server[0] droppedJobsTotal 634879
scalar FogSequentialForward.fog[51].dispatcher localJobs 1157000
scalar FogSequentialForward.fog[51].dispatcher internalJobs 1442549
scalar FogSequentialForward.fog[51].dispatcher externalJobs 6928682
scalar FogSequentialForward.fog[51].dispatcher remoteJobs 6928402
scalar FogSequentialForward.fog[51].dispatcher probeQueries 0
scalar FogSequentialForward.fog[51].dispatcher probeAnswers 0
scalar FogSequentialForward.fog[51].dispatcher droppedJobsSLA 285829
scalar FogSequentialForward.fog[51].dispatcher jobs_class_1 8371231
scalar FogSequentialForward.fog[51].dispatcher remoteJobs_class_1 6928402
scalar FogSequentialForward.fog[51].dispatcher localJobs_class_1 1157000
scalar FogSequentialForward.fog[51].dispatcher droppedJobsSLA_class_1 285829
scalar FogSequentialForward.fog[51].server[0] rho 0.99997967481613
scalar FogSequentialForward.fog[51].server[0] congestionRatio 0
scalar FogSequentialForward.fog[51].server[0] totalJobs 1157000
scalar FogSequentialForward.fog[51].server[0] droppedJobsQueue 6564
scalar FogSequentialForward.fog[51].server[0] droppedJobsTimout 0
scalar FogSequentialForward.fog[51].server[0] droppedJobsSLA 627551
scalar FogSequentialForward.fog[51].server[0] droppedJobsTotal 634115
scalar FogSequentialForward.fog[52].dispatcher localJobs 1156510
scalar FogSequentialForward.fog[52].dispatcher internalJobs 1444307
scalar FogSequentialForward.fog[52].dispatcher externalJobs 6924196
scalar FogSequentialForward.fog[52].dispatcher remoteJobs 6926363
scalar FogSequentialForward.fog[52].dispatcher probeQueries 0
scalar FogSequentialForward.fog[52].dispatcher probeAnswers 0
scalar FogSequentialForward.fog[52].dispatcher droppedJobsSLA 285630
scalar FogSequentialForward.fog[52].dispatcher jobs_class_1 8368503
scalar FogSequentialForward.fog[52].dispatcher remoteJobs_class_1 6926363
scalar FogSequentialForward.fog[52].dispatcher localJobs_class_1 1156510
scalar FogSequentialForward.fog[52].dispatcher droppedJobsSLA_class_1 285630
scalar FogSequentialForward.fog[52].server[0] rho 0.99997758865356
scalar FogSequentialForward.fog[52].server[0] congestionRatio 0
scalar FogSequentialForward.fog[52].server[0] totalJobs 1156510
scalar FogSequentialForward.fog[52].server[0] droppedJobsQueue 6646
scalar FogSequentialForward.fog[52].server[0] droppedJobsTimout 0
scalar FogSequentialForward.fog[52].server[0] droppedJobsSLA 627375
scalar FogSequentialForward.fog[52].server[0] droppedJobsTotal 634021
scalar FogSequentialForward.fog[53].dispatcher localJobs 1157521
scalar FogSequentialForward.fog[53].dispatcher internalJobs 1444280
scalar FogSequentialForward.fog[53].dispatcher externalJobs 6927695
scalar FogSequentialForward.fog[53].dispatcher remoteJobs 6928186
scalar FogSequentialForward.fog[53].dispatcher probeQueries 0
scalar FogSequentialForward.fog[53].dispatcher probeAnswers 0
scalar FogSequentialForward.fog[53].dispatcher droppedJobsSLA 286268
scalar FogSequentialForward.fog[53].dispatcher jobs_class_1 8371975
scalar FogSequentialForward.fog[53].dispatcher remoteJobs_class_1 6928186
scalar FogSequentialForward.fog[53].dispatcher localJobs_class_1 1157521
scalar FogSequentialForward.fog[53].dispatcher droppedJobsSLA_class_1 286268
scalar FogSequentialForward.fog[53].server[0] rho 0.99997472763062
scalar FogSequentialForward.fog[53].server[0] congestionRatio 0
scalar FogSequentialForward.fog[53].server[0] totalJobs 1157521
scalar FogSequentialForward.fog[53].server[0] droppedJobsQueue 6683
scalar FogSequentialForward.fog[53].server[0] droppedJobsTimout 0
scalar FogSequentialForward.fog[53].server[0] droppedJobsSLA 628471
scalar FogSequentialForward.fog[53].server[0] droppedJobsTotal 635154
scalar FogSequentialForward.fog[54].dispatcher localJobs 1157356
scalar FogSequentialForward.fog[54].dispatcher internalJobs 1442824
scalar FogSequentialForward.fog[54].dispatcher externalJobs 6932436
scalar FogSequentialForward.fog[54].dispatcher remoteJobs 6932543
scalar FogSequentialForward.fog[54].dispatcher probeQueries 0
scalar FogSequentialForward.fog[54].dispatcher probeAnswers 0
scalar FogSequentialForward.fog[54].dispatcher droppedJobsSLA 285361
scalar FogSequentialForward.fog[54].dispatcher jobs_class_1 8375260
scalar FogSequentialForward.fog[54].dispatcher remoteJobs_class_1 6932543
scalar FogSequentialForward.fog[54].dispatcher localJobs_class_1 1157356
scalar FogSequentialForward.fog[54].dispatcher droppedJobsSLA_class_1 285361
scalar FogSequentialForward.fog[54].server[0] rho 0.99998086690903
scalar FogSequentialForward.fog[54].server[0] congestionRatio 0
scalar FogSequentialForward.fog[54].server[0] totalJobs 1157356
scalar FogSequentialForward.fog[54].server[0] droppedJobsQueue 6685
scalar FogSequentialForward.fog[54].server[0] droppedJobsTimout 0
scalar FogSequentialForward.fog[54].server[0] droppedJobsSLA 628189
scalar FogSequentialForward.fog[54].server[0] droppedJobsTotal 634874
scalar FogSequentialForward.fog[55].dispatcher localJobs 1157200
scalar FogSequentialForward.fog[55].dispatcher internalJobs 1444431
scalar FogSequentialForward.fog[55].dispatcher externalJobs 6930178
scalar FogSequentialForward.fog[55].dispatcher remoteJobs 6930983
scalar FogSequentialForward.fog[55].dispatcher probeQueries 0
scalar FogSequentialForward.fog[55].dispatcher probeAnswers 0
scalar FogSequentialForward.fog[55].dispatcher droppedJobsSLA 286426
scalar FogSequentialForward.fog[55].dispatcher jobs_class_1 8374609
scalar FogSequentialForward.fog[55].dispatcher remoteJobs_class_1 6930983
scalar FogSequentialForward.fog[55].dispatcher localJobs_class_1 1157200
scalar FogSequentialForward.fog[55].dispatcher droppedJobsSLA_class_1 286426
scalar FogSequentialForward.fog[55].server[0] rho 0.99997609853745
scalar FogSequentialForward.fog[55].server[0] congestionRatio 0
scalar FogSequentialForward.fog[55].server[0] totalJobs 1157200
scalar FogSequentialForward.fog[55].server[0] droppedJobsQueue 6800
scalar FogSequentialForward.fog[55].server[0] droppedJobsTimout 0
scalar FogSequentialForward.fog[55].server[0] droppedJobsSLA 628159
scalar FogSequentialForward.fog[55].server[0] droppedJobsTotal 634959
scalar FogSequentialForward.fog[56].dispatcher localJobs 1155800
scalar FogSequentialForward.fog[56].dispatcher internalJobs 1444521
scalar FogSequentialForward.fog[56].dispatcher externalJobs 6924949
scalar FogSequentialForward.fog[56].dispatcher remoteJobs 6928932
scalar FogSequentialForward.fog[56].dispatcher probeQueries 0
scalar FogSequentialForward.fog[56].dispatcher probeAnswers 0
scalar FogSequentialForward.fog[56].dispatcher droppedJobsSLA 284738
scalar FogSequentialForward.fog[56].dispatcher jobs_class_1 8369470
scalar FogSequentialForward.fog[56].dispatcher remoteJobs_class_1 6928932
scalar FogSequentialForward.fog[56].dispatcher localJobs_class_1 1155800
scalar FogSequentialForward.fog[56].dispatcher droppedJobsSLA_class_1 284738
scalar FogSequentialForward.fog[56].server[0] rho 0.99997758865356
scalar FogSequentialForward.fog[56].server[0] congestionRatio 0
scalar FogSequentialForward.fog[56].server[0] totalJobs 1155800
scalar FogSequentialForward.fog[56].server[0] droppedJobsQueue 6677
scalar FogSequentialForward.fog[56].server[0] droppedJobsTimout 0
scalar FogSequentialForward.fog[56].server[0] droppedJobsSLA 626803
scalar FogSequentialForward.fog[56].server[0] droppedJobsTotal 633480
scalar FogSequentialForward.fog[57].dispatcher localJobs 1157376
scalar FogSequentialForward.fog[57].dispatcher internalJobs 1443527
scalar FogSequentialForward.fog[57].dispatcher externalJobs 6931313
scalar FogSequentialForward.fog[57].dispatcher remoteJobs 6930543
scalar FogSequentialForward.fog[57].dispatcher probeQueries 0
scalar FogSequentialForward.fog[57].dispatcher probeAnswers 0
scalar FogSequentialForward.fog[57].dispatcher droppedJobsSLA 286921
scalar FogSequentialForward.fog[57].dispatcher jobs_class_1 8374840
scalar FogSequentialForward.fog[57].dispatcher remoteJobs_class_1 6930543
scalar FogSequentialForward.fog[57].dispatcher localJobs_class_1 1157376
scalar FogSequentialForward.fog[57].dispatcher droppedJobsSLA_class_1 286921
scalar FogSequentialForward.fog[57].server[0] rho 0.99997979402542
scalar FogSequentialForward.fog[57].server[0] congestionRatio 0
scalar FogSequentialForward.fog[57].server[0] totalJobs 1157376
scalar FogSequentialForward.fog[57].server[0] droppedJobsQueue 6859
scalar FogSequentialForward.fog[57].server[0] droppedJobsTimout 0
scalar FogSequentialForward.fog[57].server[0] droppedJobsSLA 627736
scalar FogSequentialForward.fog[57].server[0] droppedJobsTotal 634595
scalar FogSequentialForward.fog[58].dispatcher localJobs 1157170
scalar FogSequentialForward.fog[58].dispatcher internalJobs 1442552
scalar FogSequentialForward.fog[58].dispatcher externalJobs 6927975
scalar FogSequentialForward.fog[58].dispatcher remoteJobs 6928005
scalar FogSequentialForward.fog[58].dispatcher probeQueries 0
scalar FogSequentialForward.fog[58].dispatcher probeAnswers 0
scalar FogSequentialForward.fog[58].dispatcher droppedJobsSLA 285352
scalar FogSequentialForward.fog[58].dispatcher jobs_class_1 8370527
scalar FogSequentialForward.fog[58].dispatcher remoteJobs_class_1 6928005
scalar FogSequentialForward.fog[58].dispatcher localJobs_class_1 1157170
scalar FogSequentialForward.fog[58].dispatcher droppedJobsSLA_class_1 285352
scalar FogSequentialForward.fog[58].server[0] rho 0.99997758865356
scalar FogSequentialForward.fog[58].server[0] congestionRatio 0
scalar FogSequentialForward.fog[58].server[0] totalJobs 1157170
scalar FogSequentialForward.fog[58].server[0] droppedJobsQueue 6735
scalar FogSequentialForward.fog[58].server[0] droppedJobsTimout 0
scalar FogSequentialForward.fog[58].server[0] droppedJobsSLA 627924
scalar FogSequentialForward.fog[58].server[0] droppedJobsTotal 634659
scalar FogSequentialForward.fog[59].dispatcher localJobs 1156721
scalar FogSequentialForward.fog[59].dispatcher internalJobs 1442311
scalar FogSequentialForward.fog[59].dispatcher externalJobs 6926682
scalar FogSequentialForward.fog[59].dispatcher remoteJobs 6925537
scalar FogSequentialForward.fog[59].dispatcher probeQueries 0
scalar FogSequentialForward.fog[59].dispatcher probeAnswers 0
scalar FogSequentialForward.fog[59].dispatcher droppedJobsSLA 286735
scalar FogSequentialForward.fog[59].dispatcher jobs_class_1 8368993
scalar FogSequentialForward.fog[59].dispatcher remoteJobs_class_1 6925537
scalar FogSequentialForward.fog[59].dispatcher localJobs_class_1 1156721
scalar FogSequentialForward.fog[59].dispatcher droppedJobsSLA_class_1 286735
scalar FogSequentialForward.fog[59].server[0] rho 0.99997800588608
scalar FogSequentialForward.fog[59].server[0] congestionRatio 0
scalar FogSequentialForward.fog[59].server[0] totalJobs 1156721
scalar FogSequentialForward.fog[59].server[0] droppedJobsQueue 6721
scalar FogSequentialForward.fog[59].server[0] droppedJobsTimout 0
scalar FogSequentialForward.fog[59].server[0] droppedJobsSLA 627532
scalar FogSequentialForward.fog[59].server[0] droppedJobsTotal 634253
scalar FogSequentialForward.fog[60].dispatcher localJobs 1156584
scalar FogSequentialForward.fog[60].dispatcher internalJobs 1445964
scalar FogSequentialForward.fog[60].dispatcher externalJobs 6926548
scalar FogSequentialForward.fog[60].dispatcher remoteJobs 6930135
scalar FogSequentialForward.fog[60].dispatcher probeQueries 0
scalar FogSequentialForward.fog[60].dispatcher probeAnswers 0
scalar FogSequentialForward.fog[60].dispatcher droppedJobsSLA 285793
scalar FogSequentialForward.fog[60].dispatcher jobs_class_1 8372512
scalar FogSequentialForward.fog[60].dispatcher remoteJobs_class_1 6930135
scalar FogSequentialForward.fog[60].dispatcher localJobs_class_1 1156584
scalar FogSequentialForward.fog[60].dispatcher droppedJobsSLA_class_1 285793
scalar FogSequentialForward.fog[60].server[0] rho 0.99997359514236
scalar FogSequentialForward.fog[60].server[0] congestionRatio 0
scalar FogSequentialForward.fog[60].server[0] totalJobs 1156584
scalar FogSequentialForward.fog[60].server[0] droppedJobsQueue 6680
scalar FogSequentialForward.fog[60].server[0] droppedJobsTimout 0
scalar FogSequentialForward.fog[60].server[0] droppedJobsSLA 626868
scalar FogSequentialForward.fog[60].server[0] droppedJobsTotal 633548
scalar FogSequentialForward.fog[61].dispatcher localJobs 1158179
scalar FogSequentialForward.fog[61].dispatcher internalJobs 1443319
scalar FogSequentialForward.fog[61].dispatcher externalJobs 6926983
scalar FogSequentialForward.fog[61].dispatcher remoteJobs 6926534
scalar FogSequentialForward.fog[61].dispatcher probeQueries 0
scalar FogSequentialForward.fog[61].dispatcher probeAnswers 0
scalar FogSequentialForward.fog[61].dispatcher droppedJobsSLA 285589
scalar FogSequentialForward.fog[61].dispatcher jobs_class_1 8370302
scalar FogSequentialForward.fog[61].dispatcher remoteJobs_class_1 6926534
scalar FogSequentialForward.fog[61].dispatcher localJobs_class_1 1158179
scalar FogSequentialForward.fog[61].dispatcher droppedJobsSLA_class_1 285589
scalar FogSequentialForward.fog[61].server[0] rho 0.99997824430466
scalar FogSequentialForward.fog[61].server[0] congestionRatio 0
scalar FogSequentialForward.fog[61].server[0] totalJobs 1158179
scalar FogSequentialForward.fog[61].server[0] droppedJobsQueue 6813
scalar FogSequentialForward.fog[61].server[0] droppedJobsTimout 0
scalar FogSequentialForward.fog[61].server[0] droppedJobsSLA 629042
scalar FogSequentialForward.fog[61].server[0] droppedJobsTotal 635855
scalar FogSequentialForward.fog[62].dispatcher localJobs 1156808
scalar FogSequentialForward.fog[62].dispatcher internalJobs 1442660
scalar FogSequentialForward.fog[62].dispatcher externalJobs 6931696
scalar FogSequentialForward.fog[62].dispatcher remoteJobs 6931788
scalar FogSequentialForward.fog[62].dispatcher probeQueries 0
scalar FogSequentialForward.fog[62].dispatcher probeAnswers 0
scalar FogSequentialForward.fog[62].dispatcher droppedJobsSLA 285760
scalar FogSequentialForward.fog[62].dispatcher jobs_class_1 8374356
scalar FogSequentialForward.fog[62].dispatcher remoteJobs_class_1 6931788
scalar FogSequentialForward.fog[62].dispatcher localJobs_class_1 1156808
scalar FogSequentialForward.fog[62].dispatcher droppedJobsSLA_class_1 285760
scalar FogSequentialForward.fog[62].server[0] rho 0.99997973442078
scalar FogSequentialForward.fog[62].server[0] congestionRatio 0
scalar FogSequentialForward.fog[62].server[0] totalJobs 1156808
scalar FogSequentialForward.fog[62].server[0] droppedJobsQueue 6609
scalar FogSequentialForward.fog[62].server[0] droppedJobsTimout 0
scalar FogSequentialForward.fog[62].server[0] droppedJobsSLA 627414
scalar FogSequentialForward.fog[62].server[0] droppedJobsTotal 634023
scalar FogSequentialForward.fog[63].dispatcher localJobs 1158473
scalar FogSequentialForward.fog[63].dispatcher internalJobs 1442072
scalar FogSequentialForward.fog[63].dispatcher externalJobs 6929015
scalar FogSequentialForward.fog[63].dispatcher remoteJobs 6927155
scalar FogSequentialForward.fog[63].dispatcher probeQueries 0
scalar FogSequentialForward.fog[63].dispatcher probeAnswers 0
scalar FogSequentialForward.fog[63].dispatcher droppedJobsSLA 285459
scalar FogSequentialForward.fog[63].dispatcher jobs_class_1 8371087
scalar FogSequentialForward.fog[63].dispatcher remoteJobs_class_1 6927155
scalar FogSequentialForward.fog[63].dispatcher localJobs_class_1 1158473
scalar FogSequentialForward.fog[63].dispatcher droppedJobsSLA_class_1 285459
scalar FogSequentialForward.fog[63].server[0] rho 0.999980032444
scalar FogSequentialForward.fog[63].server[0] congestionRatio 0
scalar FogSequentialForward.fog[63].server[0] totalJobs 1158473
scalar FogSequentialForward.fog[63].server[0] droppedJobsQueue 6876
scalar FogSequentialForward.fog[63].server[0] droppedJobsTimout 0
scalar FogSequentialForward.fog[63].server[0] droppedJobsSLA 629125
scalar FogSequentialForward.fog[63].server[0] droppedJobsTotal 636001
scalar FogSequentialForward.fog[64].dispatcher localJobs 1157053
scalar FogSequentialForward.fog[64].dispatcher internalJobs 1441605
scalar FogSequentialForward.fog[64].dispatcher externalJobs 6922382
scalar FogSequentialForward.fog[64].dispatcher remoteJobs 6921232
scalar FogSequentialForward.fog[64].dispatcher probeQueries 0
scalar FogSequentialForward.fog[64].dispatcher probeAnswers 0
scalar FogSequentialForward.fog[64].dispatcher droppedJobsSLA 285702
scalar FogSequentialForward.fog[64].dispatcher jobs_class_1 8363987
scalar FogSequentialForward.fog[64].dispatcher remoteJobs_class_1 6921232
scalar FogSequentialForward.fog[64].dispatcher localJobs_class_1 1157053
scalar FogSequentialForward.fog[64].dispatcher droppedJobsSLA_class_1 285702
scalar FogSequentialForward.fog[64].server[0] rho 0.99997717142105
scalar FogSequentialForward.fog[64].server[0] congestionRatio 0
[...]
scalar FogSequentialForward.fog[84].dispatcher localJobs_class_1 1156962
scalar FogSequentialForward.fog[84].dispatcher droppedJobsSLA_class_1 285035
scalar FogSequentialForward.fog[84].server[0] rho 0.99997901916504
scalar FogSequentialForward.fog[84].server[0] congestionRatio 0
scalar FogSequentialForward.fog[84].server[0] totalJobs 1156962
scalar FogSequentialForward.fog[84].server[0] droppedJobsQueue 6719
scalar FogSequentialForward.fog[84].server[0] droppedJobsTimout 0
scalar FogSequentialForward.fog[84].server[0] droppedJobsSLA 627255
scalar FogSequentialForward.fog[84].server[0] droppedJobsTotal 633974
scalar FogSequentialForward.fog[85].dispatcher localJobs 1157157
scalar FogSequentialForward.fog[85].dispatcher internalJobs 1441084
scalar FogSequentialForward.fog[85].dispatcher externalJobs 6927303
scalar FogSequentialForward.fog[85].dispatcher remoteJobs 6925642
scalar FogSequentialForward.fog[85].dispatcher probeQueries 0
scalar FogSequentialForward.fog[85].dispatcher probeAnswers 0
scalar FogSequentialForward.fog[85].dispatcher droppedJobsSLA 285588
scalar FogSequentialForward.fog[85].dispatcher jobs_class_1 8368387
scalar FogSequentialForward.fog[85].dispatcher remoteJobs_class_1 6925642
scalar FogSequentialForward.fog[85].dispatcher localJobs_class_1 1157157
scalar FogSequentialForward.fog[85].dispatcher droppedJobsSLA_class_1 285588
scalar FogSequentialForward.fog[85].server[0] rho 0.99997800588608
scalar FogSequentialForward.fog[85].server[0] congestionRatio 0
scalar FogSequentialForward.fog[85].server[0] totalJobs 1157157
scalar FogSequentialForward.fog[85].server[0] droppedJobsQueue 6757
scalar FogSequentialForward.fog[85].server[0] droppedJobsTimout 0
scalar FogSequentialForward.fog[85].server[0] droppedJobsSLA 628035
scalar FogSequentialForward.fog[85].server[0] droppedJobsTotal 634792
scalar FogSequentialForward.fog[86].dispatcher localJobs 1157356
scalar FogSequentialForward.fog[86].dispatcher internalJobs 1442303
scalar FogSequentialForward.fog[86].dispatcher externalJobs 6927467
scalar FogSequentialForward.fog[86].dispatcher remoteJobs 6927213
scalar FogSequentialForward.fog[86].dispatcher probeQueries 0
scalar FogSequentialForward.fog[86].dispatcher probeAnswers 0
scalar FogSequentialForward.fog[86].dispatcher droppedJobsSLA 285201
scalar FogSequentialForward.fog[86].dispatcher jobs_class_1 8369770
scalar FogSequentialForward.fog[86].dispatcher remoteJobs_class_1 6927213
scalar FogSequentialForward.fog[86].dispatcher localJobs_class_1 1157356
scalar FogSequentialForward.fog[86].dispatcher droppedJobsSLA_class_1 285201
scalar FogSequentialForward.fog[86].server[0] rho 0.99997717142105
scalar FogSequentialForward.fog[86].server[0] congestionRatio 0
scalar FogSequentialForward.fog[86].server[0] totalJobs 1157356
scalar FogSequentialForward.fog[86].server[0] droppedJobsQueue 6796
scalar FogSequentialForward.fog[86].server[0] droppedJobsTimout 0
scalar FogSequentialForward.fog[86].server[0] droppedJobsSLA 627869
scalar FogSequentialForward.fog[86].server[0] droppedJobsTotal 634665
scalar FogSequentialForward.fog[87].dispatcher localJobs 1158667
scalar FogSequentialForward.fog[87].dispatcher internalJobs 1442220
scalar FogSequentialForward.fog[87].dispatcher externalJobs 6929976
scalar FogSequentialForward.fog[87].dispatcher remoteJobs 6927127
scalar FogSequentialForward.fog[87].dispatcher probeQueries 0
scalar FogSequentialForward.fog[87].dispatcher probeAnswers 0
scalar FogSequentialForward.fog[87].dispatcher droppedJobsSLA 286402
scalar FogSequentialForward.fog[87].dispatcher jobs_class_1 8372196
scalar FogSequentialForward.fog[87].dispatcher remoteJobs_class_1 6927127
scalar FogSequentialForward.fog[87].dispatcher localJobs_class_1 1158667
scalar FogSequentialForward.fog[87].dispatcher droppedJobsSLA_class_1 286402
scalar FogSequentialForward.fog[87].server[0] rho 0.99997627735138
scalar FogSequentialForward.fog[87].server[0] congestionRatio 0
scalar FogSequentialForward.fog[87].server[0] totalJobs 1158667
scalar FogSequentialForward.fog[87].server[0] droppedJobsQueue 6711
scalar FogSequentialForward.fog[87].server[0] droppedJobsTimout 0
scalar FogSequentialForward.fog[87].server[0] droppedJobsSLA 629350
scalar FogSequentialForward.fog[87].server[0] droppedJobsTotal 636061
scalar FogSequentialForward.fog[88].dispatcher localJobs 1156920
scalar FogSequentialForward.fog[88].dispatcher internalJobs 1442268
scalar FogSequentialForward.fog[88].dispatcher externalJobs 6933921
scalar FogSequentialForward.fog[88].dispatcher remoteJobs 6933232
scalar FogSequentialForward.fog[88].dispatcher probeQueries 0
scalar FogSequentialForward.fog[88].dispatcher probeAnswers 0
scalar FogSequentialForward.fog[88].dispatcher droppedJobsSLA 286037
scalar FogSequentialForward.fog[88].dispatcher jobs_class_1 8376189
scalar FogSequentialForward.fog[88].dispatcher remoteJobs_class_1 6933232
scalar FogSequentialForward.fog[88].dispatcher localJobs_class_1 1156920
scalar FogSequentialForward.fog[88].dispatcher droppedJobsSLA_class_1 286037
scalar FogSequentialForward.fog[88].server[0] rho 0.99997520446777
scalar FogSequentialForward.fog[88].server[0] congestionRatio 0
scalar FogSequentialForward.fog[88].server[0] totalJobs 1156920
scalar FogSequentialForward.fog[88].server[0] droppedJobsQueue 6704
scalar FogSequentialForward.fog[88].server[0] droppedJobsTimout 0
scalar FogSequentialForward.fog[88].server[0] droppedJobsSLA 627605
scalar FogSequentialForward.fog[88].server[0] droppedJobsTotal 634309
scalar FogSequentialForward.fog[89].dispatcher localJobs 1156577
scalar FogSequentialForward.fog[89].dispatcher internalJobs 1442362
scalar FogSequentialForward.fog[89].dispatcher externalJobs 6922012
scalar FogSequentialForward.fog[89].dispatcher remoteJobs 6922343
scalar FogSequentialForward.fog[89].dispatcher probeQueries 0
scalar FogSequentialForward.fog[89].dispatcher probeAnswers 0
scalar FogSequentialForward.fog[89].dispatcher droppedJobsSLA 285454
scalar FogSequentialForward.fog[89].dispatcher jobs_class_1 8364374
scalar FogSequentialForward.fog[89].dispatcher remoteJobs_class_1 6922343
scalar FogSequentialForward.fog[89].dispatcher localJobs_class_1 1156577
scalar FogSequentialForward.fog[89].dispatcher droppedJobsSLA_class_1 285454
scalar FogSequentialForward.fog[89].server[0] rho 0.99997746944427
scalar FogSequentialForward.fog[89].server[0] congestionRatio 0
scalar FogSequentialForward.fog[89].server[0] totalJobs 1156577
scalar FogSequentialForward.fog[89].server[0] droppedJobsQueue 6719
scalar FogSequentialForward.fog[89].server[0] droppedJobsTimout 0
scalar FogSequentialForward.fog[89].server[0] droppedJobsSLA 627260
scalar FogSequentialForward.fog[89].server[0] droppedJobsTotal 633979
scalar FogSequentialForward.fog[90].dispatcher localJobs 1156889
scalar FogSequentialForward.fog[90].dispatcher internalJobs 1442146
scalar FogSequentialForward.fog[90].dispatcher externalJobs 6926934
scalar FogSequentialForward.fog[90].dispatcher remoteJobs 6926265
scalar FogSequentialForward.fog[90].dispatcher probeQueries 0
scalar FogSequentialForward.fog[90].dispatcher probeAnswers 0
scalar FogSequentialForward.fog[90].dispatcher droppedJobsSLA 285926
scalar FogSequentialForward.fog[90].dispatcher jobs_class_1 8369080
scalar FogSequentialForward.fog[90].dispatcher remoteJobs_class_1 6926265
scalar FogSequentialForward.fog[90].dispatcher localJobs_class_1 1156889
scalar FogSequentialForward.fog[90].dispatcher droppedJobsSLA_class_1 285926
scalar FogSequentialForward.fog[90].server[0] rho 0.99997568130493
scalar FogSequentialForward.fog[90].server[0] congestionRatio 0
scalar FogSequentialForward.fog[90].server[0] totalJobs 1156889
scalar FogSequentialForward.fog[90].server[0] droppedJobsQueue 6677
scalar FogSequentialForward.fog[90].server[0] droppedJobsTimout 0
scalar FogSequentialForward.fog[90].server[0] droppedJobsSLA 627381
scalar FogSequentialForward.fog[90].server[0] droppedJobsTotal 634058
scalar FogSequentialForward.fog[91].dispatcher localJobs 1158142
scalar FogSequentialForward.fog[91].dispatcher internalJobs 1442780
scalar FogSequentialForward.fog[91].dispatcher externalJobs 6926954
scalar FogSequentialForward.fog[91].dispatcher remoteJobs 6926087
scalar FogSequentialForward.fog[91].dispatcher probeQueries 0
scalar FogSequentialForward.fog[91].dispatcher probeAnswers 0
scalar FogSequentialForward.fog[91].dispatcher droppedJobsSLA 285505
scalar FogSequentialForward.fog[91].dispatcher jobs_class_1 8369734
scalar FogSequentialForward.fog[91].dispatcher remoteJobs_class_1 6926087
scalar FogSequentialForward.fog[91].dispatcher localJobs_class_1 1158142
scalar FogSequentialForward.fog[91].dispatcher droppedJobsSLA_class_1 285505
scalar FogSequentialForward.fog[91].server[0] rho 0.99997532367706
scalar FogSequentialForward.fog[91].server[0] congestionRatio 0
scalar FogSequentialForward.fog[91].server[0] totalJobs 1158142
scalar FogSequentialForward.fog[91].server[0] droppedJobsQueue 6663
scalar FogSequentialForward.fog[91].server[0] droppedJobsTimout 0
scalar FogSequentialForward.fog[91].server[0] droppedJobsSLA 628567
scalar FogSequentialForward.fog[91].server[0] droppedJobsTotal 635230
scalar FogSequentialForward.fog[92].dispatcher localJobs 1158024
scalar FogSequentialForward.fog[92].dispatcher internalJobs 1442451
scalar FogSequentialForward.fog[92].dispatcher externalJobs 6929826
scalar FogSequentialForward.fog[92].dispatcher remoteJobs 6928488
scalar FogSequentialForward.fog[92].dispatcher probeQueries 0
scalar FogSequentialForward.fog[92].dispatcher probeAnswers 0
scalar FogSequentialForward.fog[92].dispatcher droppedJobsSLA 285765
scalar FogSequentialForward.fog[92].dispatcher jobs_class_1 8372277
scalar FogSequentialForward.fog[92].dispatcher remoteJobs_class_1 6928488
scalar FogSequentialForward.fog[92].dispatcher localJobs_class_1 1158024
scalar FogSequentialForward.fog[92].dispatcher droppedJobsSLA_class_1 285765
scalar FogSequentialForward.fog[92].server[0] rho 0.99998372793198
scalar FogSequentialForward.fog[92].server[0] congestionRatio 0
scalar FogSequentialForward.fog[92].server[0] totalJobs 1158024
scalar FogSequentialForward.fog[92].server[0] droppedJobsQueue 6747
scalar FogSequentialForward.fog[92].server[0] droppedJobsTimout 0
scalar FogSequentialForward.fog[92].server[0] droppedJobsSLA 629093
scalar FogSequentialForward.fog[92].server[0] droppedJobsTotal 635840
scalar FogSequentialForward.fog[93].dispatcher localJobs 1156852
scalar FogSequentialForward.fog[93].dispatcher internalJobs 1441030
scalar FogSequentialForward.fog[93].dispatcher externalJobs 6927115
scalar FogSequentialForward.fog[93].dispatcher remoteJobs 6925548
scalar FogSequentialForward.fog[93].dispatcher probeQueries 0
scalar FogSequentialForward.fog[93].dispatcher probeAnswers 0
scalar FogSequentialForward.fog[93].dispatcher droppedJobsSLA 285745
scalar FogSequentialForward.fog[93].dispatcher jobs_class_1 8368145
scalar FogSequentialForward.fog[93].dispatcher remoteJobs_class_1 6925548
scalar FogSequentialForward.fog[93].dispatcher localJobs_class_1 1156852
scalar FogSequentialForward.fog[93].dispatcher droppedJobsSLA_class_1 285745
scalar FogSequentialForward.fog[93].server[0] rho 0.99997442960739
scalar FogSequentialForward.fog[93].server[0] congestionRatio 0
scalar FogSequentialForward.fog[93].server[0] totalJobs 1156852
scalar FogSequentialForward.fog[93].server[0] droppedJobsQueue 6735
scalar FogSequentialForward.fog[93].server[0] droppedJobsTimout 0
scalar FogSequentialForward.fog[93].server[0] droppedJobsSLA 627541
scalar FogSequentialForward.fog[93].server[0] droppedJobsTotal 634276
scalar FogSequentialForward.fog[94].dispatcher localJobs 1156592
scalar FogSequentialForward.fog[94].dispatcher internalJobs 1441238
scalar FogSequentialForward.fog[94].dispatcher externalJobs 6930171
scalar FogSequentialForward.fog[94].dispatcher remoteJobs 6927698
scalar FogSequentialForward.fog[94].dispatcher probeQueries 0
scalar FogSequentialForward.fog[94].dispatcher probeAnswers 0
scalar FogSequentialForward.fog[94].dispatcher droppedJobsSLA 287119
scalar FogSequentialForward.fog[94].dispatcher jobs_class_1 8371409
scalar FogSequentialForward.fog[94].dispatcher remoteJobs_class_1 6927698
scalar FogSequentialForward.fog[94].dispatcher localJobs_class_1 1156592
scalar FogSequentialForward.fog[94].dispatcher droppedJobsSLA_class_1 287119
scalar FogSequentialForward.fog[94].server[0] rho 0.99997866153717
scalar FogSequentialForward.fog[94].server[0] congestionRatio 0
scalar FogSequentialForward.fog[94].server[0] totalJobs 1156592
scalar FogSequentialForward.fog[94].server[0] droppedJobsQueue 6698
scalar FogSequentialForward.fog[94].server[0] droppedJobsTimout 0
scalar FogSequentialForward.fog[94].server[0] droppedJobsSLA 627193
scalar FogSequentialForward.fog[94].server[0] droppedJobsTotal 633891
scalar FogSequentialForward.fog[95].dispatcher localJobs 1157281
scalar FogSequentialForward.fog[95].dispatcher internalJobs 1442935
scalar FogSequentialForward.fog[95].dispatcher externalJobs 6924345
scalar FogSequentialForward.fog[95].dispatcher remoteJobs 6924148
scalar FogSequentialForward.fog[95].dispatcher probeQueries 0
scalar FogSequentialForward.fog[95].dispatcher probeAnswers 0
scalar FogSequentialForward.fog[95].dispatcher droppedJobsSLA 285851
scalar FogSequentialForward.fog[95].dispatcher jobs_class_1 8367280
scalar FogSequentialForward.fog[95].dispatcher remoteJobs_class_1 6924148
scalar FogSequentialForward.fog[95].dispatcher localJobs_class_1 1157281
scalar FogSequentialForward.fog[95].dispatcher droppedJobsSLA_class_1 285851
scalar FogSequentialForward.fog[95].server[0] rho 0.9999720454216
scalar FogSequentialForward.fog[95].server[0] congestionRatio 0
scalar FogSequentialForward.fog[95].server[0] totalJobs 1157281
scalar FogSequentialForward.fog[95].server[0] droppedJobsQueue 6791
scalar FogSequentialForward.fog[95].server[0] droppedJobsTimout 0
scalar FogSequentialForward.fog[95].server[0] droppedJobsSLA 627414
scalar FogSequentialForward.fog[95].server[0] droppedJobsTotal 634205
scalar FogSequentialForward.fog[96].dispatcher localJobs 1157771
scalar FogSequentialForward.fog[96].dispatcher internalJobs 1442751
scalar FogSequentialForward.fog[96].dispatcher externalJobs 6923239
scalar FogSequentialForward.fog[96].dispatcher remoteJobs 6923350
scalar FogSequentialForward.fog[96].dispatcher probeQueries 0
scalar FogSequentialForward.fog[96].dispatcher probeAnswers 0
scalar FogSequentialForward.fog[96].dispatcher droppedJobsSLA 284869
scalar FogSequentialForward.fog[96].dispatcher jobs_class_1 8365990
scalar FogSequentialForward.fog[96].dispatcher remoteJobs_class_1 6923350
scalar FogSequentialForward.fog[96].dispatcher localJobs_class_1 1157771
scalar FogSequentialForward.fog[96].dispatcher droppedJobsSLA_class_1 284869
scalar FogSequentialForward.fog[96].server[0] rho 0.99997842311859
scalar FogSequentialForward.fog[96].server[0] congestionRatio 0
scalar FogSequentialForward.fog[96].server[0] totalJobs 1157771
scalar FogSequentialForward.fog[96].server[0] droppedJobsQueue 6792
scalar FogSequentialForward.fog[96].server[0] droppedJobsTimout 0
scalar FogSequentialForward.fog[96].server[0] droppedJobsSLA 629115
scalar FogSequentialForward.fog[96].server[0] droppedJobsTotal 635907
scalar FogSequentialForward.fog[97].dispatcher localJobs 1157216
scalar FogSequentialForward.fog[97].dispatcher internalJobs 1443446
scalar FogSequentialForward.fog[97].dispatcher externalJobs 6919582
scalar FogSequentialForward.fog[97].dispatcher remoteJobs 6920775
scalar FogSequentialForward.fog[97].dispatcher probeQueries 0
scalar FogSequentialForward.fog[97].dispatcher probeAnswers 0
scalar FogSequentialForward.fog[97].dispatcher droppedJobsSLA 285037
scalar FogSequentialForward.fog[97].dispatcher jobs_class_1 8363028
scalar FogSequentialForward.fog[97].dispatcher remoteJobs_class_1 6920775
scalar FogSequentialForward.fog[97].dispatcher localJobs_class_1 1157216
scalar FogSequentialForward.fog[97].dispatcher droppedJobsSLA_class_1 285037
scalar FogSequentialForward.fog[97].server[0] rho 0.999980032444
scalar FogSequentialForward.fog[97].server[0] congestionRatio 0
scalar FogSequentialForward.fog[97].server[0] totalJobs 1157216
scalar FogSequentialForward.fog[97].server[0] droppedJobsQueue 6682
scalar FogSequentialForward.fog[97].server[0] droppedJobsTimout 0
scalar FogSequentialForward.fog[97].server[0] droppedJobsSLA 627693
scalar FogSequentialForward.fog[97].server[0] droppedJobsTotal 634375
scalar FogSequentialForward.fog[98].dispatcher localJobs 1158615
scalar FogSequentialForward.fog[98].dispatcher internalJobs 1442140
scalar FogSequentialForward.fog[98].dispatcher externalJobs 6929919
scalar FogSequentialForward.fog[98].dispatcher remoteJobs 6927509
scalar FogSequentialForward.fog[98].dispatcher probeQueries 0
scalar FogSequentialForward.fog[98].dispatcher probeAnswers 0
scalar FogSequentialForward.fog[98].dispatcher droppedJobsSLA 285935
scalar FogSequentialForward.fog[98].dispatcher jobs_class_1 8372059
scalar FogSequentialForward.fog[98].dispatcher remoteJobs_class_1 6927509
scalar FogSequentialForward.fog[98].dispatcher localJobs_class_1 1158615
scalar FogSequentialForward.fog[98].dispatcher droppedJobsSLA_class_1 285935
scalar FogSequentialForward.fog[98].server[0] rho 0.99997651576996
scalar FogSequentialForward.fog[98].server[0] congestionRatio 0
scalar FogSequentialForward.fog[98].server[0] totalJobs 1158615
scalar FogSequentialForward.fog[98].server[0] droppedJobsQueue 6853
scalar FogSequentialForward.fog[98].server[0] droppedJobsTimout 0
scalar FogSequentialForward.fog[98].server[0] droppedJobsSLA 629364
scalar FogSequentialForward.fog[98].server[0] droppedJobsTotal 636217
scalar FogSequentialForward.fog[99].dispatcher localJobs 1157487
scalar FogSequentialForward.fog[99].dispatcher internalJobs 1442944
scalar FogSequentialForward.fog[99].dispatcher externalJobs 6925416
scalar FogSequentialForward.fog[99].dispatcher remoteJobs 6925495
scalar FogSequentialForward.fog[99].dispatcher probeQueries 0
scalar FogSequentialForward.fog[99].dispatcher probeAnswers 0
scalar FogSequentialForward.fog[99].dispatcher droppedJobsSLA 285378
scalar FogSequentialForward.fog[99].dispatcher jobs_class_1 8368360
scalar FogSequentialForward.fog[99].dispatcher remoteJobs_class_1 6925495
scalar FogSequentialForward.fog[99].dispatcher localJobs_class_1 1157487
scalar FogSequentialForward.fog[99].dispatcher droppedJobsSLA_class_1 285378
scalar FogSequentialForward.fog[99].server[0] rho 0.99997824430466
scalar FogSequentialForward.fog[99].server[0] congestionRatio 0
scalar FogSequentialForward.fog[99].server[0] totalJobs 1157487
scalar FogSequentialForward.fog[99].server[0] droppedJobsQueue 6792
scalar FogSequentialForward.fog[99].server[0] droppedJobsTimout 0
scalar FogSequentialForward.fog[99].server[0] droppedJobsSLA 628297
scalar FogSequentialForward.fog[99].server[0] droppedJobsTotal 635089
scalar FogSequentialForward.sink avg_responseTime_1 0.12411872260757
scalar FogSequentialForward.sink p90_responseTime_1 0.015399094555
scalar FogSequentialForward.sink med_responseTime_1 0.015399094555
scalar FogSequentialForward.sink avg_delayTime_1 0
scalar FogSequentialForward.sink p90_delayTime_1 0
scalar FogSequentialForward.sink med_delayTime_1 0
scalar FogSequentialForward.sink avg_queuingTime_1 0.082023875184387
scalar FogSequentialForward.sink p90_queuingTime_1 0
scalar FogSequentialForward.sink med_queuingTime_1 0
scalar FogSequentialForward.sink avg_serviceTime_1 0.016716166460367
scalar FogSequentialForward.sink p90_serviceTime_1 0.014757200269
scalar FogSequentialForward.sink med_serviceTime_1 0.014757200269
scalar FogSequentialForward.sink avg_balancerTime_1 0.025378680967243
scalar FogSequentialForward.sink p90_balancerTime_1 0
scalar FogSequentialForward.sink med_balancerTime_1 0
scalar FogSequentialForward.sink avg_balancerCount_1 2.5196814947798
scalar FogSequentialForward.sink p90_balancerCount_1 1
scalar FogSequentialForward.sink med_balancerCount_1 1

