version 2
run Fog-mul_10-rho_08-thr_1-0-20190714-02:26:49-91372
attr configname Fog-mul_10-rho_08-thr_1
attr datetime 20190714-02:26:49
attr experiment Fog-mul_10-rho_08-thr_1
attr inifile FogSequentialForward.ini
attr iterationvars ""
attr iterationvarsf ""
attr measurement ""
attr network FogSequentialForward
attr processid 91372
attr repetition 0
attr replication #0
attr resultdir results
attr runnumber 0
attr seedset 0
param FogSequentialForward.proctimeMul 1.0
param FogSequentialForward.rho 0.8
param FogSequentialForward.fog[*].dispatcher.thr 1
param FogSequentialForward.nSources 100
param FogSequentialForward.rho 0.9
param FogSequentialForward.proctimeMul 1.0
param FogSequentialForward.source[*].appId 1
param FogSequentialForward.source[*].realTime true
param FogSequentialForward.source[*].multiHop true
param FogSequentialForward.fog[*].nServers 1
param FogSequentialForward.fog[*].dispatcher.fanOut 1
param FogSequentialForward.fog[*].server[*].timeSlice -1s
param FogSequentialForward.fog[*].server[*].timeout -1s
param FogSequentialForward.fog[*].server[*].capacity 20
param FogSequentialForward.fog[*].server[*].fifo true
param FogSequentialForward.fog[*].server[*].maxServiceTime -1s
param FogSequentialForward.fog[*].dispatcher.thr 1

scalar FogSequentialForward.fog[0].dispatcher localJobs 3
scalar FogSequentialForward.fog[0].dispatcher internalJobs 14424
scalar FogSequentialForward.fog[0].dispatcher externalJobs 14406748
scalar FogSequentialForward.fog[0].dispatcher remoteJobs 14406921
scalar FogSequentialForward.fog[0].dispatcher probeQueries 0
scalar FogSequentialForward.fog[0].dispatcher probeAnswers 0
scalar FogSequentialForward.fog[0].dispatcher droppedJobsSLA 14248
scalar FogSequentialForward.fog[0].dispatcher jobs_class_1 14421172
scalar FogSequentialForward.fog[0].dispatcher remoteJobs_class_1 14406921
scalar FogSequentialForward.fog[0].dispatcher localJobs_class_1 3
scalar FogSequentialForward.fog[0].dispatcher droppedJobsSLA_class_1 14248
scalar FogSequentialForward.fog[0].server[0] rho 0.00045971956569701
scalar FogSequentialForward.fog[0].server[0] congestionRatio 0
scalar FogSequentialForward.fog[0].server[0] totalJobs 3
scalar FogSequentialForward.fog[0].server[0] droppedJobsQueue 0
scalar FogSequentialForward.fog[0].server[0] droppedJobsTimout 0
scalar FogSequentialForward.fog[0].server[0] droppedJobsSLA 0
scalar FogSequentialForward.fog[0].server[0] droppedJobsTotal 0
scalar FogSequentialForward.fog[1].dispatcher localJobs 2
scalar FogSequentialForward.fog[1].dispatcher internalJobs 14297
scalar FogSequentialForward.fog[1].dispatcher externalJobs 14409943
scalar FogSequentialForward.fog[1].dispatcher remoteJobs 14409741
scalar FogSequentialForward.fog[1].dispatcher probeQueries 0
scalar FogSequentialForward.fog[1].dispatcher probeAnswers 0
scalar FogSequentialForward.fog[1].dispatcher droppedJobsSLA 14497
scalar FogSequentialForward.fog[1].dispatcher jobs_class_1 14424240
scalar FogSequentialForward.fog[1].dispatcher remoteJobs_class_1 14409741
scalar FogSequentialForward.fog[1].dispatcher localJobs_class_1 2
scalar FogSequentialForward.fog[1].dispatcher droppedJobsSLA_class_1 14497
scalar FogSequentialForward.fog[1].server[0] rho 0.00029654600075446
scalar FogSequentialForward.fog[1].server[0] congestionRatio 0
scalar FogSequentialForward.fog[1].server[0] totalJobs 2
scalar FogSequentialForward.fog[1].server[0] droppedJobsQueue 0
scalar FogSequentialForward.fog[1].server[0] droppedJobsTimout 0
scalar FogSequentialForward.fog[1].server[0] droppedJobsSLA 0
scalar FogSequentialForward.fog[1].server[0] droppedJobsTotal 0
scalar FogSequentialForward.fog[2].dispatcher localJobs 4
scalar FogSequentialForward.fog[2].dispatcher internalJobs 14242
scalar FogSequentialForward.fog[2].dispatcher externalJobs 14406242
scalar FogSequentialForward.fog[2].dispatcher remoteJobs 14406133
scalar FogSequentialForward.fog[2].dispatcher probeQueries 0
scalar FogSequentialForward.fog[2].dispatcher probeAnswers 0
scalar FogSequentialForward.fog[2].dispatcher droppedJobsSLA 14347
scalar FogSequentialForward.fog[2].dispatcher jobs_class_1 14420484
scalar FogSequentialForward.fog[2].dispatcher remoteJobs_class_1 14406133
scalar FogSequentialForward.fog[2].dispatcher localJobs_class_1 4
scalar FogSequentialForward.fog[2].dispatcher droppedJobsSLA_class_1 14347
scalar FogSequentialForward.fog[2].server[0] rho 0.00061867001932114
scalar FogSequentialForward.fog[2].server[0] congestionRatio 0
scalar FogSequentialForward.fog[2].server[0] totalJobs 4
scalar FogSequentialForward.fog[2].server[0] droppedJobsQueue 0
scalar FogSequentialForward.fog[2].server[0] droppedJobsTimout 0
scalar FogSequentialForward.fog[2].server[0] droppedJobsSLA 0
scalar FogSequentialForward.fog[2].server[0] droppedJobsTotal 0
scalar FogSequentialForward.fog[3].dispatcher localJobs 3
scalar FogSequentialForward.fog[3].dispatcher internalJobs 14405
scalar FogSequentialForward.fog[3].dispatcher externalJobs 14404799
scalar FogSequentialForward.fog[3].dispatcher remoteJobs 14404975
scalar FogSequentialForward.fog[3].dispatcher probeQueries 0
scalar FogSequentialForward.fog[3].dispatcher probeAnswers 0
scalar FogSequentialForward.fog[3].dispatcher droppedJobsSLA 14226
scalar FogSequentialForward.fog[3].dispatcher jobs_class_1 14419204
scalar FogSequentialForward.fog[3].dispatcher remoteJobs_class_1 14404975
scalar FogSequentialForward.fog[3].dispatcher localJobs_class_1 3
scalar FogSequentialForward.fog[3].dispatcher droppedJobsSLA_class_1 14226
scalar FogSequentialForward.fog[3].server[0] rho 0.00045275542652234
scalar FogSequentialForward.fog[3].server[0] congestionRatio 0
scalar FogSequentialForward.fog[3].server[0] totalJobs 3
scalar FogSequentialForward.fog[3].server[0] droppedJobsQueue 0
scalar FogSequentialForward.fog[3].server[0] droppedJobsTimout 0
scalar FogSequentialForward.fog[3].server[0] droppedJobsSLA 0
scalar FogSequentialForward.fog[3].server[0] droppedJobsTotal 0
scalar FogSequentialForward.fog[4].dispatcher localJobs 1
scalar FogSequentialForward.fog[4].dispatcher internalJobs 14565
scalar FogSequentialForward.fog[4].dispatcher externalJobs 14404194
scalar FogSequentialForward.fog[4].dispatcher remoteJobs 14404261
scalar FogSequentialForward.fog[4].dispatcher probeQueries 0
scalar FogSequentialForward.fog[4].dispatcher probeAnswers 0
scalar FogSequentialForward.fog[4].dispatcher droppedJobsSLA 14497
scalar FogSequentialForward.fog[4].dispatcher jobs_class_1 14418759
scalar FogSequentialForward.fog[4].dispatcher remoteJobs_class_1 14404261
scalar FogSequentialForward.fog[4].dispatcher localJobs_class_1 1
scalar FogSequentialForward.fog[4].dispatcher droppedJobsSLA_class_1 14497
scalar FogSequentialForward.fog[4].server[0] rho 0.00015357733354904
scalar FogSequentialForward.fog[4].server[0] congestionRatio 0
scalar FogSequentialForward.fog[4].server[0] totalJobs 1
scalar FogSequentialForward.fog[4].server[0] droppedJobsQueue 0
scalar FogSequentialForward.fog[4].server[0] droppedJobsTimout 0
scalar FogSequentialForward.fog[4].server[0] droppedJobsSLA 0
scalar FogSequentialForward.fog[4].server[0] droppedJobsTotal 0
scalar FogSequentialForward.fog[5].dispatcher localJobs 4
scalar FogSequentialForward.fog[5].dispatcher internalJobs 14478
scalar FogSequentialForward.fog[5].dispatcher externalJobs 14402398
scalar FogSequentialForward.fog[5].dispatcher remoteJobs 14402547
scalar FogSequentialForward.fog[5].dispatcher probeQueries 0
scalar FogSequentialForward.fog[5].dispatcher probeAnswers 0
scalar FogSequentialForward.fog[5].dispatcher droppedJobsSLA 14325
scalar FogSequentialForward.fog[5].dispatcher jobs_class_1 14416876
scalar FogSequentialForward.fog[5].dispatcher remoteJobs_class_1 14402547
scalar FogSequentialForward.fog[5].dispatcher localJobs_class_1 4
scalar FogSequentialForward.fog[5].dispatcher droppedJobsSLA_class_1 14325
scalar FogSequentialForward.fog[5].server[0] rho 0.00061648536939174
scalar FogSequentialForward.fog[5].server[0] congestionRatio 0
scalar FogSequentialForward.fog[5].server[0] totalJobs 4
scalar FogSequentialForward.fog[5].server[0] droppedJobsQueue 0
scalar FogSequentialForward.fog[5].server[0] droppedJobsTimout 0
scalar FogSequentialForward.fog[5].server[0] droppedJobsSLA 0
scalar FogSequentialForward.fog[5].server[0] droppedJobsTotal 0
scalar FogSequentialForward.fog[6].dispatcher localJobs 2
scalar FogSequentialForward.fog[6].dispatcher internalJobs 14588
scalar FogSequentialForward.fog[6].dispatcher externalJobs 14406091
scalar FogSequentialForward.fog[6].dispatcher remoteJobs 14406491
scalar FogSequentialForward.fog[6].dispatcher probeQueries 0
scalar FogSequentialForward.fog[6].dispatcher probeAnswers 0
scalar FogSequentialForward.fog[6].dispatcher droppedJobsSLA 14186
scalar FogSequentialForward.fog[6].dispatcher jobs_class_1 14420679
scalar FogSequentialForward.fog[6].dispatcher remoteJobs_class_1 14406491
scalar FogSequentialForward.fog[6].dispatcher localJobs_class_1 2
scalar FogSequentialForward.fog[6].dispatcher droppedJobsSLA_class_1 14186
scalar FogSequentialForward.fog[6].server[0] rho 0.00030940232682042
scalar FogSequentialForward.fog[6].server[0] congestionRatio 0
scalar FogSequentialForward.fog[6].server[0] totalJobs 2
scalar FogSequentialForward.fog[6].server[0] droppedJobsQueue 0
scalar FogSequentialForward.fog[6].server[0] droppedJobsTimout 0
scalar FogSequentialForward.fog[6].server[0] droppedJobsSLA 0
scalar FogSequentialForward.fog[6].server[0] droppedJobsTotal 0
scalar FogSequentialForward.fog[7].dispatcher localJobs 3
scalar FogSequentialForward.fog[7].dispatcher internalJobs 14189
scalar FogSequentialForward.fog[7].dispatcher externalJobs 14406962
scalar FogSequentialForward.fog[7].dispatcher remoteJobs 14406783
scalar FogSequentialForward.fog[7].dispatcher probeQueries 0
scalar FogSequentialForward.fog[7].dispatcher probeAnswers 0
scalar FogSequentialForward.fog[7].dispatcher droppedJobsSLA 14365
scalar FogSequentialForward.fog[7].dispatcher jobs_class_1 14421151
scalar FogSequentialForward.fog[7].dispatcher remoteJobs_class_1 14406783
scalar FogSequentialForward.fog[7].dispatcher localJobs_class_1 3
scalar FogSequentialForward.fog[7].dispatcher droppedJobsSLA_class_1 14365
scalar FogSequentialForward.fog[7].server[0] rho 0.00045605751802213
scalar FogSequentialForward.fog[7].server[0] congestionRatio 0
scalar FogSequentialForward.fog[7].server[0] totalJobs 3
scalar FogSequentialForward.fog[7].server[0] droppedJobsQueue 0
scalar FogSequentialForward.fog[7].server[0] droppedJobsTimout 0
scalar FogSequentialForward.fog[7].server[0] droppedJobsSLA 0
scalar FogSequentialForward.fog[7].server[0] droppedJobsTotal 0
scalar FogSequentialForward.fog[8].dispatcher localJobs 1
scalar FogSequentialForward.fog[8].dispatcher internalJobs 14306
scalar FogSequentialForward.fog[8].dispatcher externalJobs 14402646
scalar FogSequentialForward.fog[8].dispatcher remoteJobs 14402604
scalar FogSequentialForward.fog[8].dispatcher probeQueries 0
scalar FogSequentialForward.fog[8].dispatcher probeAnswers 0
scalar FogSequentialForward.fog[8].dispatcher droppedJobsSLA 14347
scalar FogSequentialForward.fog[8].dispatcher jobs_class_1 14416952
scalar FogSequentialForward.fog[8].dispatcher remoteJobs_class_1 14402604
scalar FogSequentialForward.fog[8].dispatcher localJobs_class_1 1
scalar FogSequentialForward.fog[8].dispatcher droppedJobsSLA_class_1 14347
scalar FogSequentialForward.fog[8].server[0] rho 0.000151254091179
scalar FogSequentialForward.fog[8].server[0] congestionRatio 0
scalar FogSequentialForward.fog[8].server[0] totalJobs 1
scalar FogSequentialForward.fog[8].server[0] droppedJobsQueue 0
scalar FogSequentialForward.fog[8].server[0] droppedJobsTimout 0
scalar FogSequentialForward.fog[8].server[0] droppedJobsSLA 0
scalar FogSequentialForward.fog[8].server[0] droppedJobsTotal 0
scalar FogSequentialForward.fog[9].dispatcher localJobs 6
scalar FogSequentialForward.fog[9].dispatcher internalJobs 14316
scalar FogSequentialForward.fog[9].dispatcher externalJobs 14403868
scalar FogSequentialForward.fog[9].dispatcher remoteJobs 14403686
scalar FogSequentialForward.fog[9].dispatcher probeQueries 0
scalar FogSequentialForward.fog[9].dispatcher probeAnswers 0
scalar FogSequentialForward.fog[9].dispatcher droppedJobsSLA 14492
scalar FogSequentialForward.fog[9].dispatcher jobs_class_1 14418184
scalar FogSequentialForward.fog[9].dispatcher remoteJobs_class_1 14403686
scalar FogSequentialForward.fog[9].dispatcher localJobs_class_1 6
scalar FogSequentialForward.fog[9].dispatcher droppedJobsSLA_class_1 14492
scalar FogSequentialForward.fog[9].server[0] rho 0.00092875806149095
scalar FogSequentialForward.fog[9].server[0] congestionRatio 0
scalar FogSequentialForward.fog[9].server[0] totalJobs 6
scalar FogSequentialForward.fog[9].server[0] droppedJobsQueue 0
scalar FogSequentialForward.fog[9].server[0] droppedJobsTimout 0
scalar FogSequentialForward.fog[9].server[0] droppedJobsSLA 0
scalar FogSequentialForward.fog[9].server[0] droppedJobsTotal 0
scalar FogSequentialForward.fog[10].dispatcher localJobs 3
scalar FogSequentialForward.fog[10].dispatcher internalJobs 14343
scalar FogSequentialForward.fog[10].dispatcher externalJobs 14404516
scalar FogSequentialForward.fog[10].dispatcher remoteJobs 14404405
scalar FogSequentialForward.fog[10].dispatcher probeQueries 0
scalar FogSequentialForward.fog[10].dispatcher probeAnswers 0
scalar FogSequentialForward.fog[10].dispatcher droppedJobsSLA 14451
scalar FogSequentialForward.fog[10].dispatcher jobs_class_1 14418859
scalar FogSequentialForward.fog[10].dispatcher remoteJobs_class_1 14404405
scalar FogSequentialForward.fog[10].dispatcher localJobs_class_1 3
scalar FogSequentialForward.fog[10].dispatcher droppedJobsSLA_class_1 14451
scalar FogSequentialForward.fog[10].server[0] rho 0.00046408225898631
scalar FogSequentialForward.fog[10].server[0] congestionRatio 0
scalar FogSequentialForward.fog[10].server[0] totalJobs 3
scalar FogSequentialForward.fog[10].server[0] droppedJobsQueue 0
scalar FogSequentialForward.fog[10].server[0] droppedJobsTimout 0
scalar FogSequentialForward.fog[10].server[0] droppedJobsSLA 0
scalar FogSequentialForward.fog[10].server[0] droppedJobsTotal 0
scalar FogSequentialForward.fog[11].dispatcher localJobs 1
scalar FogSequentialForward.fog[11].dispatcher internalJobs 14450
scalar FogSequentialForward.fog[11].dispatcher externalJobs 14406887
scalar FogSequentialForward.fog[11].dispatcher remoteJobs 14406742
scalar FogSequentialForward.fog[11].dispatcher probeQueries 0
scalar FogSequentialForward.fog[11].dispatcher probeAnswers 0
scalar FogSequentialForward.fog[11].dispatcher droppedJobsSLA 14594
scalar FogSequentialForward.fog[11].dispatcher jobs_class_1 14421337
scalar FogSequentialForward.fog[11].dispatcher remoteJobs_class_1 14406742
scalar FogSequentialForward.fog[11].dispatcher localJobs_class_1 1
scalar FogSequentialForward.fog[11].dispatcher droppedJobsSLA_class_1 14594
scalar FogSequentialForward.fog[11].server[0] rho 0.00015621451893821
scalar FogSequentialForward.fog[11].server[0] congestionRatio 0
scalar FogSequentialForward.fog[11].server[0] totalJobs 1
scalar FogSequentialForward.fog[11].server[0] droppedJobsQueue 0
scalar FogSequentialForward.fog[11].server[0] droppedJobsTimout 0
scalar FogSequentialForward.fog[11].server[0] droppedJobsSLA 0
scalar FogSequentialForward.fog[11].server[0] droppedJobsTotal 0
scalar FogSequentialForward.fog[12].dispatcher localJobs 2
scalar FogSequentialForward.fog[12].dispatcher internalJobs 14339
scalar FogSequentialForward.fog[12].dispatcher externalJobs 14399779
scalar FogSequentialForward.fog[12].dispatcher remoteJobs 14399851
scalar FogSequentialForward.fog[12].dispatcher probeQueries 0
scalar FogSequentialForward.fog[12].dispatcher probeAnswers 0
scalar FogSequentialForward.fog[12].dispatcher droppedJobsSLA 14265
scalar FogSequentialForward.fog[12].dispatcher jobs_class_1 14414118
scalar FogSequentialForward.fog[12].dispatcher remoteJobs_class_1 14399851
scalar FogSequentialForward.fog[12].dispatcher localJobs_class_1 2
scalar FogSequentialForward.fog[12].dispatcher droppedJobsSLA_class_1 14265
scalar FogSequentialForward.fog[12].server[0] rho 0.00030579356825911
scalar FogSequentialForward.fog[12].server[0] congestionRatio 0
scalar FogSequentialForward.fog[12].server[0] totalJobs 2
scalar FogSequentialForward.fog[12].server[0] droppedJobsQueue 0
scalar FogSequentialForward.fog[12].server[0] droppedJobsTimout 0
scalar FogSequentialForward.fog[12].server[0] droppedJobsSLA 0
scalar FogSequentialForward.fog[12].server[0] droppedJobsTotal 0
scalar FogSequentialForward.fog[13].dispatcher localJobs 4
scalar FogSequentialForward.fog[13].dispatcher internalJobs 14515
scalar FogSequentialForward.fog[13].dispatcher externalJobs 14415137
scalar FogSequentialForward.fog[13].dispatcher remoteJobs 14415193
scalar FogSequentialForward.fog[13].dispatcher probeQueries 0
scalar FogSequentialForward.fog[13].dispatcher probeAnswers 0
scalar FogSequentialForward.fog[13].dispatcher droppedJobsSLA 14455
scalar FogSequentialForward.fog[13].dispatcher jobs_class_1 14429652
scalar FogSequentialForward.fog[13].dispatcher remoteJobs_class_1 14415193
scalar FogSequentialForward.fog[13].dispatcher localJobs_class_1 4
scalar FogSequentialForward.fog[13].dispatcher droppedJobsSLA_class_1 14455
scalar FogSequentialForward.fog[13].server[0] rho 0.00061950483359396
scalar FogSequentialForward.fog[13].server[0] congestionRatio 0
scalar FogSequentialForward.fog[13].server[0] totalJobs 4
scalar FogSequentialForward.fog[13].server[0] droppedJobsQueue 0
scalar FogSequentialForward.fog[13].server[0] droppedJobsTimout 0
scalar FogSequentialForward.fog[13].server[0] droppedJobsSLA 0
scalar FogSequentialForward.fog[13].server[0] droppedJobsTotal 0
scalar FogSequentialForward.fog[14].dispatcher localJobs 3
scalar FogSequentialForward.fog[14].dispatcher internalJobs 14462
scalar FogSequentialForward.fog[14].dispatcher externalJobs 14407895
scalar FogSequentialForward.fog[14].dispatcher remoteJobs 14408018
scalar FogSequentialForward.fog[14].dispatcher probeQueries 0
scalar FogSequentialForward.fog[14].dispatcher probeAnswers 0
scalar FogSequentialForward.fog[14].dispatcher droppedJobsSLA 14336
scalar FogSequentialForward.fog[14].dispatcher jobs_class_1 14422357
scalar FogSequentialForward.fog[14].dispatcher remoteJobs_class_1 14408018
scalar FogSequentialForward.fog[14].dispatcher localJobs_class_1 3
scalar FogSequentialForward.fog[14].dispatcher droppedJobsSLA_class_1 14336
scalar FogSequentialForward.fog[14].server[0] rho 0.00046495627611876
scalar FogSequentialForward.fog[14].server[0] congestionRatio 0
scalar FogSequentialForward.fog[14].server[0] totalJobs 3
scalar FogSequentialForward.fog[14].server[0] droppedJobsQueue 0
scalar FogSequentialForward.fog[14].server[0] droppedJobsTimout 0
scalar FogSequentialForward.fog[14].server[0] droppedJobsSLA 0
scalar FogSequentialForward.fog[14].server[0] droppedJobsTotal 0
scalar FogSequentialForward.fog[15].dispatcher localJobs 4
scalar FogSequentialForward.fog[15].dispatcher internalJobs 14331
scalar FogSequentialForward.fog[15].dispatcher externalJobs 14409311
scalar FogSequentialForward.fog[15].dispatcher remoteJobs 14409331
scalar FogSequentialForward.fog[15].dispatcher probeQueries 0
scalar FogSequentialForward.fog[15].dispatcher probeAnswers 0
scalar FogSequentialForward.fog[15].dispatcher droppedJobsSLA 14307
scalar FogSequentialForward.fog[15].dispatcher jobs_class_1 14423642
scalar FogSequentialForward.fog[15].dispatcher remoteJobs_class_1 14409331
scalar FogSequentialForward.fog[15].dispatcher localJobs_class_1 4
scalar FogSequentialForward.fog[15].dispatcher droppedJobsSLA_class_1 14307
scalar FogSequentialForward.fog[15].server[0] rho 0.0006219205679372
scalar FogSequentialForward.fog[15].server[0] congestionRatio 0
scalar FogSequentialForward.fog[15].server[0] totalJobs 4
scalar FogSequentialForward.fog[15].server[0] droppedJobsQueue 0
scalar FogSequentialForward.fog[15].server[0] droppedJobsTimout 0
scalar FogSequentialForward.fog[15].server[0] droppedJobsSLA 0
scalar FogSequentialForward.fog[15].server[0] droppedJobsTotal 0
scalar FogSequentialForward.fog[16].dispatcher localJobs 3
scalar FogSequentialForward.fog[16].dispatcher internalJobs 14291
scalar FogSequentialForward.fog[16].dispatcher externalJobs 14404051
scalar FogSequentialForward.fog[16].dispatcher remoteJobs 14403888
scalar FogSequentialForward.fog[16].dispatcher probeQueries 0
scalar FogSequentialForward.fog[16].dispatcher probeAnswers 0
scalar FogSequentialForward.fog[16].dispatcher droppedJobsSLA 14451
scalar FogSequentialForward.fog[16].dispatcher jobs_class_1 14418342
scalar FogSequentialForward.fog[16].dispatcher remoteJobs_class_1 14403888
scalar FogSequentialForward.fog[16].dispatcher localJobs_class_1 3
scalar FogSequentialForward.fog[16].dispatcher droppedJobsSLA_class_1 14451
scalar FogSequentialForward.fog[16].server[0] rho 0.00046615870087408
scalar FogSequentialForward.fog[16].server[0] congestionRatio 0
scalar FogSequentialForward.fog[16].server[0] totalJobs 3
scalar FogSequentialForward.fog[16].server[0] droppedJobsQueue 0
scalar FogSequentialForward.fog[16].server[0] droppedJobsTimout 0
scalar FogSequentialForward.fog[16].server[0] droppedJobsSLA 0
scalar FogSequentialForward.fog[16].server[0] droppedJobsTotal 0
scalar FogSequentialForward.fog[17].dispatcher localJobs 5
scalar FogSequentialForward.fog[17].dispatcher internalJobs 14337
scalar FogSequentialForward.fog[17].dispatcher externalJobs 14406143
scalar FogSequentialForward.fog[17].dispatcher remoteJobs 14406361
scalar FogSequentialForward.fog[17].dispatcher probeQueries 0
scalar FogSequentialForward.fog[17].dispatcher probeAnswers 0
scalar FogSequentialForward.fog[17].dispatcher droppedJobsSLA 14114
scalar FogSequentialForward.fog[17].dispatcher jobs_class_1 14420480
scalar FogSequentialForward.fog[17].dispatcher remoteJobs_class_1 14406361
scalar FogSequentialForward.fog[17].dispatcher localJobs_class_1 5
scalar FogSequentialForward.fog[17].dispatcher droppedJobsSLA_class_1 14114
scalar FogSequentialForward.fog[17].server[0] rho 0.00077654945198447
scalar FogSequentialForward.fog[17].server[0] congestionRatio 0
scalar FogSequentialForward.fog[17].server[0] totalJobs 5
scalar FogSequentialForward.fog[17].server[0] droppedJobsQueue 0
scalar FogSequentialForward.fog[17].server[0] droppedJobsTimout 0
scalar FogSequentialForward.fog[17].server[0] droppedJobsSLA 0
scalar FogSequentialForward.fog[17].server[0] droppedJobsTotal 0
scalar FogSequentialForward.fog[18].dispatcher localJobs 4
scalar FogSequentialForward.fog[18].dispatcher internalJobs 14672
scalar FogSequentialForward.fog[18].dispatcher externalJobs 14402302
scalar FogSequentialForward.fog[18].dispatcher remoteJobs 14402500
scalar FogSequentialForward.fog[18].dispatcher probeQueries 0
scalar FogSequentialForward.fog[18].dispatcher probeAnswers 0
scalar FogSequentialForward.fog[18].dispatcher droppedJobsSLA 14470
scalar FogSequentialForward.fog[18].dispatcher jobs_class_1 14416974
scalar FogSequentialForward.fog[18].dispatcher remoteJobs_class_1 14402500
scalar FogSequentialForward.fog[18].dispatcher localJobs_class_1 4
scalar FogSequentialForward.fog[18].dispatcher droppedJobsSLA_class_1 14470
scalar FogSequentialForward.fog[18].server[0] rho 0.00061896484112367
scalar FogSequentialForward.fog[18].server[0] congestionRatio 0
scalar FogSequentialForward.fog[18].server[0] totalJobs 4
scalar FogSequentialForward.fog[18].server[0] droppedJobsQueue 0
scalar FogSequentialForward.fog[18].server[0] droppedJobsTimout 0
scalar FogSequentialForward.fog[18].server[0] droppedJobsSLA 0
scalar FogSequentialForward.fog[18].server[0] droppedJobsTotal 0
scalar FogSequentialForward.fog[19].dispatcher localJobs 2
scalar FogSequentialForward.fog[19].dispatcher internalJobs 14508
scalar FogSequentialForward.fog[19].dispatcher externalJobs 14406553
scalar FogSequentialForward.fog[19].dispatcher remoteJobs 14406446
scalar FogSequentialForward.fog[19].dispatcher probeQueries 0
scalar FogSequentialForward.fog[19].dispatcher probeAnswers 0
scalar FogSequentialForward.fog[19].dispatcher droppedJobsSLA 14613
scalar FogSequentialForward.fog[19].dispatcher jobs_class_1 14421061
scalar FogSequentialForward.fog[19].dispatcher remoteJobs_class_1 14406446
scalar FogSequentialForward.fog[19].dispatcher localJobs_class_1 2
scalar FogSequentialForward.fog[19].dispatcher droppedJobsSLA_class_1 14613
scalar FogSequentialForward.fog[19].server[0] rho 0.0003060724993702
scalar FogSequentialForward.fog[19].server[0] congestionRatio 0
scalar FogSequentialForward.fog[19].server[0] totalJobs 2
scalar FogSequentialForward.fog[19].server[0] droppedJobsQueue 0
scalar FogSequentialForward.fog[19].server[0] droppedJobsTimout 0
scalar FogSequentialForward.fog[19].server[0] droppedJobsSLA 0
scalar FogSequentialForward.fog[19].server[0] droppedJobsTotal 0
scalar FogSequentialForward.fog[20].dispatcher localJobs 2
scalar FogSequentialForward.fog[20].dispatcher internalJobs 14567
scalar FogSequentialForward.fog[20].dispatcher externalJobs 14411663
scalar FogSequentialForward.fog[20].dispatcher remoteJobs 14411801
scalar FogSequentialForward.fog[20].dispatcher probeQueries 0
scalar FogSequentialForward.fog[20].dispatcher probeAnswers 0
scalar FogSequentialForward.fog[20].dispatcher droppedJobsSLA 14427
scalar FogSequentialForward.fog[20].dispatcher jobs_class_1 14426230
scalar FogSequentialForward.fog[20].dispatcher remoteJobs_class_1 14411801
scalar FogSequentialForward.fog[20].dispatcher localJobs_class_1 2
scalar FogSequentialForward.fog[20].dispatcher droppedJobsSLA_class_1 14427
scalar FogSequentialForward.fog[20].server[0] rho 0.00031224524718709
scalar FogSequentialForward.fog[20].server[0] congestionRatio 0
scalar FogSequentialForward.fog[20].server[0] totalJobs 2
scalar FogSequentialForward.fog[20].server[0] droppedJobsQueue 0
scalar FogSequentialForward.fog[20].server[0] droppedJobsTimout 0
scalar FogSequentialForward.fog[20].server[0] droppedJobsSLA 0
scalar FogSequentialForward.fog[20].server[0] droppedJobsTotal 0
scalar FogSequentialForward.fog[21].dispatcher localJobs 3
scalar FogSequentialForward.fog[21].dispatcher internalJobs 14422
scalar FogSequentialForward.fog[21].dispatcher externalJobs 14412280
scalar FogSequentialForward.fog[21].dispatcher remoteJobs 14412177
scalar FogSequentialForward.fog[21].dispatcher probeQueries 0
scalar FogSequentialForward.fog[21].dispatcher probeAnswers 0
scalar FogSequentialForward.fog[21].dispatcher droppedJobsSLA 14522
scalar FogSequentialForward.fog[21].dispatcher jobs_class_1 14426702
scalar FogSequentialForward.fog[21].dispatcher remoteJobs_class_1 14412177
scalar FogSequentialForward.fog[21].dispatcher localJobs_class_1 3
scalar FogSequentialForward.fog[21].dispatcher droppedJobsSLA_class_1 14522
scalar FogSequentialForward.fog[21].server[0] rho 0.00045722993672825
scalar FogSequentialForward.fog[21].server[0] congestionRatio 0
scalar FogSequentialForward.fog[21].server[0] totalJobs 3
scalar FogSequentialForward.fog[21].server[0] droppedJobsQueue 0
scalar FogSequentialForward.fog[21].server[0] droppedJobsTimout 0
scalar FogSequentialForward.fog[21].server[0] droppedJobsSLA 0
scalar FogSequentialForward.fog[21].server[0] droppedJobsTotal 0
scalar FogSequentialForward.fog[22].dispatcher localJobs 3
scalar FogSequentialForward.fog[22].dispatcher internalJobs 14447
scalar FogSequentialForward.fog[22].dispatcher externalJobs 14405155
scalar FogSequentialForward.fog[22].dispatcher remoteJobs 14405141
scalar FogSequentialForward.fog[22].dispatcher probeQueries 0
scalar FogSequentialForward.fog[22].dispatcher probeAnswers 0
scalar FogSequentialForward.fog[22].dispatcher droppedJobsSLA 14458
scalar FogSequentialForward.fog[22].dispatcher jobs_class_1 14419602
scalar FogSequentialForward.fog[22].dispatcher remoteJobs_class_1 14405141
scalar FogSequentialForward.fog[22].dispatcher localJobs_class_1 3
scalar FogSequentialForward.fog[22].dispatcher droppedJobsSLA_class_1 14458
scalar FogSequentialForward.fog[22].server[0] rho 0.00047256876132451
scalar FogSequentialForward.fog[22].server[0] congestionRatio 0
scalar FogSequentialForward.fog[22].server[0] totalJobs 3
scalar FogSequentialForward.fog[22].server[0] droppedJobsQueue 0
scalar FogSequentialForward.fog[22].server[0] droppedJobsTimout 0
scalar FogSequentialForward.fog[22].server[0] droppedJobsSLA 0
scalar FogSequentialForward.fog[22].server[0] droppedJobsTotal 0
scalar FogSequentialForward.fog[23].dispatcher localJobs 4
scalar FogSequentialForward.fog[23].dispatcher internalJobs 14469
scalar FogSequentialForward.fog[23].dispatcher externalJobs 14407257
scalar FogSequentialForward.fog[23].dispatcher remoteJobs 14407314
scalar FogSequentialForward.fog[23].dispatcher probeQueries 0
scalar FogSequentialForward.fog[23].dispatcher probeAnswers 0
scalar FogSequentialForward.fog[23].dispatcher droppedJobsSLA 14408
scalar FogSequentialForward.fog[23].dispatcher jobs_class_1 14421726
scalar FogSequentialForward.fog[23].dispatcher remoteJobs_class_1 14407314
scalar FogSequentialForward.fog[23].dispatcher localJobs_class_1 4
scalar FogSequentialForward.fog[23].dispatcher droppedJobsSLA_class_1 14408
scalar FogSequentialForward.fog[23].server[0] rho 0.00060771527932957
scalar FogSequentialForward.fog[23].server[0] congestionRatio 0
scalar FogSequentialForward.fog[23].server[0] totalJobs 4
scalar FogSequentialForward.fog[23].server[0] droppedJobsQueue 0
scalar FogSequentialForward.fog[23].server[0] droppedJobsTimout 0
scalar FogSequentialForward.fog[23].server[0] droppedJobsSLA 0
scalar FogSequentialForward.fog[23].server[0] droppedJobsTotal 0
scalar FogSequentialForward.fog[24].dispatcher localJobs 3
scalar FogSequentialForward.fog[24].dispatcher internalJobs 14403
scalar FogSequentialForward.fog[24].dispatcher externalJobs 14411069
scalar FogSequentialForward.fog[24].dispatcher remoteJobs 14411112
scalar FogSequentialForward.fog[24].dispatcher probeQueries 0
scalar FogSequentialForward.fog[24].dispatcher probeAnswers 0
scalar FogSequentialForward.fog[24].dispatcher droppedJobsSLA 14357
scalar FogSequentialForward.fog[24].dispatcher jobs_class_1 14425472
scalar FogSequentialForward.fog[24].dispatcher remoteJobs_class_1 14411112
scalar FogSequentialForward.fog[24].dispatcher localJobs_class_1 3
scalar FogSequentialForward.fog[24].dispatcher droppedJobsSLA_class_1 14357
scalar FogSequentialForward.fog[24].server[0] rho 0.00046068735537119
scalar FogSequentialForward.fog[24].server[0] congestionRatio 0
scalar FogSequentialForward.fog[24].server[0] totalJobs 3
scalar FogSequentialForward.fog[24].server[0] droppedJobsQueue 0
scalar FogSequentialForward.fog[24].server[0] droppedJobsTimout 0
scalar FogSequentialForward.fog[24].server[0] droppedJobsSLA 0
scalar FogSequentialForward.fog[24].server[0] droppedJobsTotal 0
scalar FogSequentialForward.fog[25].dispatcher localJobs 1
scalar FogSequentialForward.fog[25].dispatcher internalJobs 14386
scalar FogSequentialForward.fog[25].dispatcher externalJobs 14412429
scalar FogSequentialForward.fog[25].dispatcher remoteJobs 14412540
scalar FogSequentialForward.fog[25].dispatcher probeQueries 0
scalar FogSequentialForward.fog[25].dispatcher probeAnswers 0
scalar FogSequentialForward.fog[25].dispatcher droppedJobsSLA 14274
scalar FogSequentialForward.fog[25].dispatcher jobs_class_1 14426815
scalar FogSequentialForward.fog[25].dispatcher remoteJobs_class_1 14412540
scalar FogSequentialForward.fog[25].dispatcher localJobs_class_1 1
scalar FogSequentialForward.fog[25].dispatcher droppedJobsSLA_class_1 14274
scalar FogSequentialForward.fog[25].server[0] rho 0.00015772093320265
scalar FogSequentialForward.fog[25].server[0] congestionRatio 0
scalar FogSequentialForward.fog[25].server[0] totalJobs 1
scalar FogSequentialForward.fog[25].server[0] droppedJobsQueue 0
scalar FogSequentialForward.fog[25].server[0] droppedJobsTimout 0
scalar FogSequentialForward.fog[25].server[0] droppedJobsSLA 0
scalar FogSequentialForward.fog[25].server[0] droppedJobsTotal 0
scalar FogSequentialForward.fog[26].dispatcher localJobs 2
scalar FogSequentialForward.fog[26].dispatcher internalJobs 14248
scalar FogSequentialForward.fog[26].dispatcher externalJobs 14410837
scalar FogSequentialForward.fog[26].dispatcher remoteJobs 14410730
scalar FogSequentialForward.fog[26].dispatcher probeQueries 0
scalar FogSequentialForward.fog[26].dispatcher probeAnswers 0
scalar FogSequentialForward.fog[26].dispatcher droppedJobsSLA 14353
scalar FogSequentialForward.fog[26].dispatcher jobs_class_1 14425085
scalar FogSequentialForward.fog[26].dispatcher remoteJobs_class_1 14410730
scalar FogSequentialForward.fog[26].dispatcher localJobs_class_1 2
scalar FogSequentialForward.fog[26].dispatcher droppedJobsSLA_class_1 14353
scalar FogSequentialForward.fog[26].server[0] rho 0.00030255160527304
scalar FogSequentialForward.fog[26].server[0] congestionRatio 0
scalar FogSequentialForward.fog[26].server[0] totalJobs 2
scalar FogSequentialForward.fog[26].server[0] droppedJobsQueue 0
scalar FogSequentialForward.fog[26].server[0] droppedJobsTimout 0
scalar FogSequentialForward.fog[26].server[0] droppedJobsSLA 0
scalar FogSequentialForward.fog[26].server[0] droppedJobsTotal 0
scalar FogSequentialForward.fog[27].dispatcher localJobs 1
scalar FogSequentialForward.fog[27].dispatcher internalJobs 14418
scalar FogSequentialForward.fog[27].dispatcher externalJobs 14406922
scalar FogSequentialForward.fog[27].dispatcher remoteJobs 14407027
scalar FogSequentialForward.fog[27].dispatcher probeQueries 0
scalar FogSequentialForward.fog[27].dispatcher probeAnswers 0
scalar FogSequentialForward.fog[27].dispatcher droppedJobsSLA 14312
scalar FogSequentialForward.fog[27].dispatcher jobs_class_1 14421340
scalar FogSequentialForward.fog[27].dispatcher remoteJobs_class_1 14407027
scalar FogSequentialForward.fog[27].dispatcher localJobs_class_1 1
scalar FogSequentialForward.fog[27].dispatcher droppedJobsSLA_class_1 14312
scalar FogSequentialForward.fog[27].server[0] rho 0.0001503910170868
scalar FogSequentialForward.fog[27].server[0] congestionRatio 0
scalar FogSequentialForward.fog[27].server[0] totalJobs 1
scalar FogSequentialForward.fog[27].server[0] droppedJobsQueue 0
scalar FogSequentialForward.fog[27].server[0] droppedJobsTimout 0
scalar FogSequentialForward.fog[27].server[0] droppedJobsSLA 0
scalar FogSequentialForward.fog[27].server[0] droppedJobsTotal 0
scalar FogSequentialForward.fog[28].dispatcher localJobs 6
scalar FogSequentialForward.fog[28].dispatcher internalJobs 14259
scalar FogSequentialForward.fog[28].dispatcher externalJobs 14411842
scalar FogSequentialForward.fog[28].dispatcher remoteJobs 14411539
scalar FogSequentialForward.fog[28].dispatcher probeQueries 0
scalar FogSequentialForward.fog[28].dispatcher probeAnswers 0
scalar FogSequentialForward.fog[28].dispatcher droppedJobsSLA 14556
scalar FogSequentialForward.fog[28].dispatcher jobs_class_1 14426101
scalar FogSequentialForward.fog[28].dispatcher remoteJobs_class_1 14411539
scalar FogSequentialForward.fog[28].dispatcher localJobs_class_1 6
scalar FogSequentialForward.fog[28].dispatcher droppedJobsSLA_class_1 14556
scalar FogSequentialForward.fog[28].server[0] rho 0.00093615252990276
scalar FogSequentialForward.fog[28].server[0] congestionRatio 0
scalar FogSequentialForward.fog[28].server[0] totalJobs 6
scalar FogSequentialForward.fog[28].server[0] droppedJobsQueue 0
scalar FogSequentialForward.fog[28].server[0] droppedJobsTimout 0
scalar FogSequentialForward.fog[28].server[0] droppedJobsSLA 0
scalar FogSequentialForward.fog[28].server[0] droppedJobsTotal 0
scalar FogSequentialForward.fog[29].dispatcher localJobs 3
scalar FogSequentialForward.fog[29].dispatcher internalJobs 14493
scalar FogSequentialForward.fog[29].dispatcher externalJobs 14409071
scalar FogSequentialForward.fog[29].dispatcher remoteJobs 14409287
scalar FogSequentialForward.fog[29].dispatcher probeQueries 0
scalar FogSequentialForward.fog[29].dispatcher probeAnswers 0
scalar FogSequentialForward.fog[29].dispatcher droppedJobsSLA 14274
scalar FogSequentialForward.fog[29].dispatcher jobs_class_1 14423564
scalar FogSequentialForward.fog[29].dispatcher remoteJobs_class_1 14409287
scalar FogSequentialForward.fog[29].dispatcher localJobs_class_1 3
scalar FogSequentialForward.fog[29].dispatcher droppedJobsSLA_class_1 14274
scalar FogSequentialForward.fog[29].server[0] rho 0.0004599392414093
scalar FogSequentialForward.fog[29].server[0] congestionRatio 0
scalar FogSequentialForward.fog[29].server[0] totalJobs 3
scalar FogSequentialForward.fog[29].server[0] droppedJobsQueue 0
scalar FogSequentialForward.fog[29].server[0] droppedJobsTimout 0
scalar FogSequentialForward.fog[29].server[0] droppedJobsSLA 0
scalar FogSequentialForward.fog[29].server[0] droppedJobsTotal 0
scalar FogSequentialForward.fog[30].dispatcher localJobs 4
scalar FogSequentialForward.fog[30].dispatcher internalJobs 14374
scalar FogSequentialForward.fog[30].dispatcher externalJobs 14401317
scalar FogSequentialForward.fog[30].dispatcher remoteJobs 14401252
scalar FogSequentialForward.fog[30].dispatcher probeQueries 0
scalar FogSequentialForward.fog[30].dispatcher probeAnswers 0
scalar FogSequentialForward.fog[30].dispatcher droppedJobsSLA 14435
scalar FogSequentialForward.fog[30].dispatcher jobs_class_1 14415691
scalar FogSequentialForward.fog[30].dispatcher remoteJobs_class_1 14401252
scalar FogSequentialForward.fog[30].dispatcher localJobs_class_1 4
scalar FogSequentialForward.fog[30].dispatcher droppedJobsSLA_class_1 14435
scalar FogSequentialForward.fog[30].server[0] rho 0.0006285565905273
scalar FogSequentialForward.fog[30].server[0] congestionRatio 0
scalar FogSequentialForward.fog[30].server[0] totalJobs 4
scalar FogSequentialForward.fog[30].server[0] droppedJobsQueue 0
scalar FogSequentialForward.fog[30].server[0] droppedJobsTimout 0
scalar FogSequentialForward.fog[30].server[0] droppedJobsSLA 0
scalar FogSequentialForward.fog[30].server[0] droppedJobsTotal 0
scalar FogSequentialForward.fog[31].dispatcher localJobs 3
scalar FogSequentialForward.fog[31].dispatcher internalJobs 14365
scalar FogSequentialForward.fog[31].dispatcher externalJobs 14406724
scalar FogSequentialForward.fog[31].dispatcher remoteJobs 14406834
scalar FogSequentialForward.fog[31].dispatcher probeQueries 0
scalar FogSequentialForward.fog[31].dispatcher probeAnswers 0
scalar FogSequentialForward.fog[31].dispatcher droppedJobsSLA 14252
scalar FogSequentialForward.fog[31].dispatcher jobs_class_1 14421089
scalar FogSequentialForward.fog[31].dispatcher remoteJobs_class_1 14406834
scalar FogSequentialForward.fog[31].dispatcher localJobs_class_1 3
scalar FogSequentialForward.fog[31].dispatcher droppedJobsSLA_class_1 14252
scalar FogSequentialForward.fog[31].server[0] rho 0.0004592162440531
scalar FogSequentialForward.fog[31].server[0] congestionRatio 0
scalar FogSequentialForward.fog[31].server[0] totalJobs 3
scalar FogSequentialForward.fog[31].server[0] droppedJobsQueue 0
scalar FogSequentialForward.fog[31].server[0] droppedJobsTimout 0
scalar FogSequentialForward.fog[31].server[0] droppedJobsSLA 0
scalar FogSequentialForward.fog[31].server[0] droppedJobsTotal 0
scalar FogSequentialForward.fog[32].dispatcher localJobs 4
scalar FogSequentialForward.fog[32].dispatcher internalJobs 14453
scalar FogSequentialForward.fog[32].dispatcher externalJobs 14407326
scalar FogSequentialForward.fog[32].dispatcher remoteJobs 14407381
scalar FogSequentialForward.fog[32].dispatcher probeQueries 0
scalar FogSequentialForward.fog[32].dispatcher probeAnswers 0
scalar FogSequentialForward.fog[32].dispatcher droppedJobsSLA 14394
scalar FogSequentialForward.fog[32].dispatcher jobs_class_1 14421779
scalar FogSequentialForward.fog[32].dispatcher remoteJobs_class_1 14407381
scalar FogSequentialForward.fog[32].dispatcher localJobs_class_1 4
scalar FogSequentialForward.fog[32].dispatcher droppedJobsSLA_class_1 14394
scalar FogSequentialForward.fog[32].server[0] rho 0.00061874091625214
scalar FogSequentialForward.fog[32].server[0] congestionRatio 0
scalar FogSequentialForward.fog[32].server[0] totalJobs 4
scalar FogSequentialForward.fog[32].server[0] droppedJobsQueue 0
scalar FogSequentialForward.fog[32].server[0] droppedJobsTimout 0
scalar FogSequentialForward.fog[32].server[0] droppedJobsSLA 0
scalar FogSequentialForward.fog[32].server[0] droppedJobsTotal 0
scalar FogSequentialForward.fog[33].dispatcher localJobs 4
scalar FogSequentialForward.fog[33].dispatcher internalJobs 14364
scalar FogSequentialForward.fog[33].dispatcher externalJobs 14410076
scalar FogSequentialForward.fog[33].dispatcher remoteJobs 14409912
scalar FogSequentialForward.fog[33].dispatcher probeQueries 0
scalar FogSequentialForward.fog[33].dispatcher probeAnswers 0
scalar FogSequentialForward.fog[33].dispatcher droppedJobsSLA 14524
scalar FogSequentialForward.fog[33].dispatcher jobs_class_1 14424440
scalar FogSequentialForward.fog[33].dispatcher remoteJobs_class_1 14409912
scalar FogSequentialForward.fog[33].dispatcher localJobs_class_1 4
scalar FogSequentialForward.fog[33].dispatcher droppedJobsSLA_class_1 14524
scalar FogSequentialForward.fog[33].server[0] rho 0.00061308353906497
scalar FogSequentialForward.fog[33].server[0] congestionRatio 0
scalar FogSequentialForward.fog[33].server[0] totalJobs 4
scalar FogSequentialForward.fog[33].server[0] droppedJobsQueue 0
scalar FogSequentialForward.fog[33].server[0] droppedJobsTimout 0
scalar FogSequentialForward.fog[33].server[0] droppedJobsSLA 0
scalar FogSequentialForward.fog[33].server[0] droppedJobsTotal 0
scalar FogSequentialForward.fog[34].dispatcher localJobs 1
scalar FogSequentialForward.fog[34].dispatcher internalJobs 14672
scalar FogSequentialForward.fog[34].dispatcher externalJobs 14409591
scalar FogSequentialForward.fog[34].dispatcher remoteJobs 14409717
scalar FogSequentialForward.fog[34].dispatcher probeQueries 0
scalar FogSequentialForward.fog[34].dispatcher probeAnswers 0
scalar FogSequentialForward.fog[34].dispatcher droppedJobsSLA 14545
scalar FogSequentialForward.fog[34].dispatcher jobs_class_1 14424263
scalar FogSequentialForward.fog[34].dispatcher remoteJobs_class_1 14409717
scalar FogSequentialForward.fog[34].dispatcher localJobs_class_1 1
scalar FogSequentialForward.fog[34].dispatcher droppedJobsSLA_class_1 14545
scalar FogSequentialForward.fog[34].server[0] rho 0.00015224870003294
scalar FogSequentialForward.fog[34].server[0] congestionRatio 0
scalar FogSequentialForward.fog[34].server[0] totalJobs 1
scalar FogSequentialForward.fog[34].server[0] droppedJobsQueue 0
scalar FogSequentialForward.fog[34].server[0] droppedJobsTimout 0
scalar FogSequentialForward.fog[34].server[0] droppedJobsSLA 0
scalar FogSequentialForward.fog[34].server[0] droppedJobsTotal 0
scalar FogSequentialForward.fog[35].dispatcher localJobs 4
scalar FogSequentialForward.fog[35].dispatcher internalJobs 14253
scalar FogSequentialForward.fog[35].dispatcher externalJobs 14402516
scalar FogSequentialForward.fog[35].dispatcher remoteJobs 14402342
scalar FogSequentialForward.fog[35].dispatcher probeQueries 0
scalar FogSequentialForward.fog[35].dispatcher probeAnswers 0
scalar FogSequentialForward.fog[35].dispatcher droppedJobsSLA 14423
scalar FogSequentialForward.fog[35].dispatcher jobs_class_1 14416769
scalar FogSequentialForward.fog[35].dispatcher remoteJobs_class_1 14402342
scalar FogSequentialForward.fog[35].dispatcher localJobs_class_1 4
scalar FogSequentialForward.fog[35].dispatcher droppedJobsSLA_class_1 14423
scalar FogSequentialForward.fog[35].server[0] rho 0.00061838782858104
scalar FogSequentialForward.fog[35].server[0] congestionRatio 0
scalar FogSequentialForward.fog[35].server[0] totalJobs 4
scalar FogSequentialForward.fog[35].server[0] droppedJobsQueue 0
scalar FogSequentialForward.fog[35].server[0] droppedJobsTimout 0
scalar FogSequentialForward.fog[35].server[0] droppedJobsSLA 0
scalar FogSequentialForward.fog[35].server[0] droppedJobsTotal 0
scalar FogSequentialForward.fog[36].dispatcher localJobs 2
scalar FogSequentialForward.fog[36].dispatcher internalJobs 14339
scalar FogSequentialForward.fog[36].dispatcher externalJobs 14409737
scalar FogSequentialForward.fog[36].dispatcher remoteJobs 14409555
scalar FogSequentialForward.fog[36].dispatcher probeQueries 0
scalar FogSequentialForward.fog[36].dispatcher probeAnswers 0
scalar FogSequentialForward.fog[36].dispatcher droppedJobsSLA 14519
scalar FogSequentialForward.fog[36].dispatcher jobs_class_1 14424076
scalar FogSequentialForward.fog[36].dispatcher remoteJobs_class_1 14409555
scalar FogSequentialForward.fog[36].dispatcher localJobs_class_1 2
scalar FogSequentialForward.fog[36].dispatcher droppedJobsSLA_class_1 14519
scalar FogSequentialForward.fog[36].server[0] rho 0.00030392070766538
scalar FogSequentialForward.fog[36].server[0] congestionRatio 0
scalar FogSequentialForward.fog[36].server[0] totalJobs 2
scalar FogSequentialForward.fog[36].server[0] droppedJobsQueue 0
scalar FogSequentialForward.fog[36].server[0] droppedJobsTimout 0
scalar FogSequentialForward.fog[36].server[0] droppedJobsSLA 0
scalar FogSequentialForward.fog[36].server[0] droppedJobsTotal 0
scalar FogSequentialForward.fog[37].dispatcher localJobs 2
scalar FogSequentialForward.fog[37].dispatcher internalJobs 14668
scalar FogSequentialForward.fog[37].dispatcher externalJobs 14406949
scalar FogSequentialForward.fog[37].dispatcher remoteJobs 14407193
scalar FogSequentialForward.fog[37].dispatcher probeQueries 0
scalar FogSequentialForward.fog[37].dispatcher probeAnswers 0
scalar FogSequentialForward.fog[37].dispatcher droppedJobsSLA 14422
scalar FogSequentialForward.fog[37].dispatcher jobs_class_1 14421617
scalar FogSequentialForward.fog[37].dispatcher remoteJobs_class_1 14407193
scalar FogSequentialForward.fog[37].dispatcher localJobs_class_1 2
scalar FogSequentialForward.fog[37].dispatcher droppedJobsSLA_class_1 14422
scalar FogSequentialForward.fog[37].server[0] rho 0.00030516376136802
scalar FogSequentialForward.fog[37].server[0] congestionRatio 0
scalar FogSequentialForward.fog[37].server[0] totalJobs 2
scalar FogSequentialForward.fog[37].server[0] droppedJobsQueue 0
scalar FogSequentialForward.fog[37].server[0] droppedJobsTimout 0
scalar FogSequentialForward.fog[37].server[0] droppedJobsSLA 0
scalar FogSequentialForward.fog[37].server[0] droppedJobsTotal 0
scalar FogSequentialForward.fog[38].dispatcher localJobs 3
scalar FogSequentialForward.fog[38].dispatcher internalJobs 14389
scalar FogSequentialForward.fog[38].dispatcher externalJobs 14406882
scalar FogSequentialForward.fog[38].dispatcher remoteJobs 14406979
scalar FogSequentialForward.fog[38].dispatcher probeQueries 0
scalar FogSequentialForward.fog[38].dispatcher probeAnswers 0
scalar FogSequentialForward.fog[38].dispatcher droppedJobsSLA 14289
scalar FogSequentialForward.fog[38].dispatcher jobs_class_1 14421271
scalar FogSequentialForward.fog[38].dispatcher remoteJobs_class_1 14406979
scalar FogSequentialForward.fog[38].dispatcher localJobs_class_1 3
scalar FogSequentialForward.fog[38].dispatcher droppedJobsSLA_class_1 14289
scalar FogSequentialForward.fog[38].server[0] rho 0.00045770654105581
scalar FogSequentialForward.fog[38].server[0] congestionRatio 0
scalar FogSequentialForward.fog[38].server[0] totalJobs 3
scalar FogSequentialForward.fog[38].server[0] droppedJobsQueue 0
scalar FogSequentialForward.fog[38].server[0] droppedJobsTimout 0
scalar FogSequentialForward.fog[38].server[0] droppedJobsSLA 0
scalar FogSequentialForward.fog[38].server[0] droppedJobsTotal 0
scalar FogSequentialForward.fog[39].dispatcher localJobs 2
scalar FogSequentialForward.fog[39].dispatcher internalJobs 14330
scalar FogSequentialForward.fog[39].dispatcher externalJobs 14405821
scalar FogSequentialForward.fog[39].dispatcher remoteJobs 14405725
scalar FogSequentialForward.fog[39].dispatcher probeQueries 0
scalar FogSequentialForward.fog[39].dispatcher probeAnswers 0
scalar FogSequentialForward.fog[39].dispatcher droppedJobsSLA 14424
scalar FogSequentialForward.fog[39].dispatcher jobs_class_1 14420151
scalar FogSequentialForward.fog[39].dispatcher remoteJobs_class_1 14405725
scalar FogSequentialForward.fog[39].dispatcher localJobs_class_1 2
scalar FogSequentialForward.fog[39].dispatcher droppedJobsSLA_class_1 14424
scalar FogSequentialForward.fog[39].server[0] rho 0.00031235822825693
scalar FogSequentialForward.fog[39].server[0] congestionRatio 0
scalar FogSequentialForward.fog[39].server[0] totalJobs 2
scalar FogSequentialForward.fog[39].server[0] droppedJobsQueue 0
scalar FogSequentialForward.fog[39].server[0] droppedJobsTimout 0
scalar FogSequentialForward.fog[39].server[0] droppedJobsSLA 0
scalar FogSequentialForward.fog[39].server[0] droppedJobsTotal 0
scalar FogSequentialForward.fog[40].dispatcher localJobs 7
scalar FogSequentialForward.fog[40].dispatcher internalJobs 14283
scalar FogSequentialForward.fog[40].dispatcher externalJobs 14409543
scalar FogSequentialForward.fog[40].dispatcher remoteJobs 14409680
scalar FogSequentialForward.fog[40].dispatcher probeQueries 0
scalar FogSequentialForward.fog[40].dispatcher probeAnswers 0
scalar FogSequentialForward.fog[40].dispatcher droppedJobsSLA 14139
scalar FogSequentialForward.fog[40].dispatcher jobs_class_1 14423826
scalar FogSequentialForward.fog[40].dispatcher remoteJobs_class_1 14409680
scalar FogSequentialForward.fog[40].dispatcher localJobs_class_1 7
scalar FogSequentialForward.fog[40].dispatcher droppedJobsSLA_class_1 14139
scalar FogSequentialForward.fog[40].server[0] rho 0.0010707504115999
scalar FogSequentialForward.fog[40].server[0] congestionRatio 0
scalar FogSequentialForward.fog[40].server[0] totalJobs 7
scalar FogSequentialForward.fog[40].server[0] droppedJobsQueue 0
scalar FogSequentialForward.fog[40].server[0] droppedJobsTimout 0
scalar FogSequentialForward.fog[40].server[0] droppedJobsSLA 0
scalar FogSequentialForward.fog[40].server[0] droppedJobsTotal 0
scalar FogSequentialForward.fog[41].dispatcher localJobs 5
scalar FogSequentialForward.fog[41].dispatcher internalJobs 14322
scalar FogSequentialForward.fog[41].dispatcher externalJobs 14406003
scalar FogSequentialForward.fog[41].dispatcher remoteJobs 14405948
scalar FogSequentialForward.fog[41].dispatcher probeQueries 0
scalar FogSequentialForward.fog[41].dispatcher probeAnswers 0
scalar FogSequentialForward.fog[41].dispatcher droppedJobsSLA 14372
scalar FogSequentialForward.fog[41].dispatcher jobs_class_1 14420325
scalar FogSequentialForward.fog[41].dispatcher remoteJobs_class_1 14405948
scalar FogSequentialForward.fog[41].dispatcher localJobs_class_1 5
scalar FogSequentialForward.fog[41].dispatcher droppedJobsSLA_class_1 14372
scalar FogSequentialForward.fog[41].server[0] rho 0.00076538452412933
scalar FogSequentialForward.fog[41].server[0] congestionRatio 0
scalar FogSequentialForward.fog[41].server[0] totalJobs 5
scalar FogSequentialForward.fog[41].server[0] droppedJobsQueue 0
scalar FogSequentialForward.fog[41].server[0] droppedJobsTimout 0
scalar FogSequentialForward.fog[41].server[0] droppedJobsSLA 0
scalar FogSequentialForward.fog[41].server[0] droppedJobsTotal 0
scalar FogSequentialForward.fog[42].dispatcher localJobs 3
scalar FogSequentialForward.fog[42].dispatcher internalJobs 14522
scalar FogSequentialForward.fog[42].dispatcher externalJobs 14406498
scalar FogSequentialForward.fog[42].dispatcher remoteJobs 14406696
scalar FogSequentialForward.fog[42].dispatcher probeQueries 0
scalar FogSequentialForward.fog[42].dispatcher probeAnswers 0
scalar FogSequentialForward.fog[42].dispatcher droppedJobsSLA 14321
scalar FogSequentialForward.fog[42].dispatcher jobs_class_1 14421020
scalar FogSequentialForward.fog[42].dispatcher remoteJobs_class_1 14406696
scalar FogSequentialForward.fog[42].dispatcher localJobs_class_1 3
scalar FogSequentialForward.fog[42].dispatcher droppedJobsSLA_class_1 14321
scalar FogSequentialForward.fog[42].server[0] rho 0.00046138139441609
scalar FogSequentialForward.fog[42].server[0] congestionRatio 0
scalar FogSequentialForward.fog[42].server[0] totalJobs 3
scalar FogSequentialForward.fog[42].server[0] droppedJobsQueue 0
scalar FogSequentialForward.fog[42].server[0] droppedJobsTimout 0
scalar FogSequentialForward.fog[42].server[0] droppedJobsSLA 0
scalar FogSequentialForward.fog[42].server[0] droppedJobsTotal 0
scalar FogSequentialForward.fog[43].dispatcher localJobs 3
scalar FogSequentialForward.fog[43].dispatcher internalJobs 14493
scalar FogSequentialForward.fog[43].dispatcher externalJobs 14411228
scalar FogSequentialForward.fog[43].dispatcher remoteJobs 14411315
scalar FogSequentialForward.fog[43].dispatcher probeQueries 0
scalar FogSequentialForward.fog[43].dispatcher probeAnswers 0
scalar FogSequentialForward.fog[43].dispatcher droppedJobsSLA 14403
scalar FogSequentialForward.fog[43].dispatcher jobs_class_1 14425721
scalar FogSequentialForward.fog[43].dispatcher remoteJobs_class_1 14411315
scalar FogSequentialForward.fog[43].dispatcher localJobs_class_1 3
scalar FogSequentialForward.fog[43].dispatcher droppedJobsSLA_class_1 14403
scalar FogSequentialForward.fog[43].server[0] rho 0.00045968141057529
scalar FogSequentialForward.fog[43].server[0] congestionRatio 0
scalar FogSequentialForward.fog[43].server[0] totalJobs 3
scalar FogSequentialForward.fog[43].server[0] droppedJobsQueue 0
scalar FogSequentialForward.fog[43].server[0] droppedJobsTimout 0
scalar FogSequentialForward.fog[43].server[0] droppedJobsSLA 0
scalar FogSequentialForward.fog[43].server[0] droppedJobsTotal 0
scalar FogSequentialForward.fog[44].dispatcher localJobs 4
scalar FogSequentialForward.fog[44].dispatcher internalJobs 14586
scalar FogSequentialForward.fog[44].dispatcher externalJobs 14405031
scalar FogSequentialForward.fog[44].dispatcher remoteJobs 14405301
scalar FogSequentialForward.fog[44].dispatcher probeQueries 0
scalar FogSequentialForward.fog[44].dispatcher probeAnswers 0
scalar FogSequentialForward.fog[44].dispatcher droppedJobsSLA 14312
scalar FogSequentialForward.fog[44].dispatcher jobs_class_1 14419617
scalar FogSequentialForward.fog[44].dispatcher remoteJobs_class_1 14405301
scalar FogSequentialForward.fog[44].dispatcher localJobs_class_1 4
scalar FogSequentialForward.fog[44].dispatcher droppedJobsSLA_class_1 14312
scalar FogSequentialForward.fog[44].server[0] rho 0.00062830536626279
scalar FogSequentialForward.fog[44].server[0] congestionRatio 0
scalar FogSequentialForward.fog[44].server[0] totalJobs 4
scalar FogSequentialForward.fog[44].server[0] droppedJobsQueue 0
scalar FogSequentialForward.fog[44].server[0] droppedJobsTimout 0
scalar FogSequentialForward.fog[44].server[0] droppedJobsSLA 0
scalar FogSequentialForward.fog[44].server[0] droppedJobsTotal 0
scalar FogSequentialForward.fog[45].dispatcher localJobs 2
scalar FogSequentialForward.fog[45].dispatcher internalJobs 14373
scalar FogSequentialForward.fog[45].dispatcher externalJobs 14413592
scalar FogSequentialForward.fog[45].dispatcher remoteJobs 14413907
scalar FogSequentialForward.fog[45].dispatcher probeQueries 0
scalar FogSequentialForward.fog[45].dispatcher probeAnswers 0
scalar FogSequentialForward.fog[45].dispatcher droppedJobsSLA 14056
scalar FogSequentialForward.fog[45].dispatcher jobs_class_1 14427965
scalar FogSequentialForward.fog[45].dispatcher remoteJobs_class_1 14413907
scalar FogSequentialForward.fog[45].dispatcher localJobs_class_1 2
scalar FogSequentialForward.fog[45].dispatcher droppedJobsSLA_class_1 14056
scalar FogSequentialForward.fog[45].server[0] rho 0.00030690687708557
scalar FogSequentialForward.fog[45].server[0] congestionRatio 0
scalar FogSequentialForward.fog[45].server[0] totalJobs 2
scalar FogSequentialForward.fog[45].server[0] droppedJobsQueue 0
scalar FogSequentialForward.fog[45].server[0] droppedJobsTimout 0
scalar FogSequentialForward.fog[45].server[0] droppedJobsSLA 0
scalar FogSequentialForward.fog[45].server[0] droppedJobsTotal 0
scalar FogSequentialForward.fog[46].dispatcher localJobs 1
scalar FogSequentialForward.fog[46].dispatcher internalJobs 14543
scalar FogSequentialForward.fog[46].dispatcher externalJobs 14406809
scalar FogSequentialForward.fog[46].dispatcher remoteJobs 14406817
scalar FogSequentialForward.fog[46].dispatcher probeQueries 0
scalar FogSequentialForward.fog[46].dispatcher probeAnswers 0
scalar FogSequentialForward.fog[46].dispatcher droppedJobsSLA 14534
scalar FogSequentialForward.fog[46].dispatcher jobs_class_1 14421352
scalar FogSequentialForward.fog[46].dispatcher remoteJobs_class_1 14406817
scalar FogSequentialForward.fog[46].dispatcher localJobs_class_1 1
scalar FogSequentialForward.fog[46].dispatcher droppedJobsSLA_class_1 14534
scalar FogSequentialForward.fog[46].server[0] rho 0.00015610481204931
scalar FogSequentialForward.fog[46].server[0] congestionRatio 0
scalar FogSequentialForward.fog[46].server[0] totalJobs 1
scalar FogSequentialForward.fog[46].server[0] droppedJobsQueue 0
scalar FogSequentialForward.fog[46].server[0] droppedJobsTimout 0
scalar FogSequentialForward.fog[46].server[0] droppedJobsSLA 0
scalar FogSequentialForward.fog[46].server[0] droppedJobsTotal 0
scalar FogSequentialForward.fog[47].dispatcher localJobs 4
scalar FogSequentialForward.fog[47].dispatcher internalJobs 14442
scalar FogSequentialForward.fog[47].dispatcher externalJobs 14406975
scalar FogSequentialForward.fog[47].dispatcher remoteJobs 14406873
scalar FogSequentialForward.fog[47].dispatcher probeQueries 0
scalar FogSequentialForward.fog[47].dispatcher probeAnswers 0
scalar FogSequentialForward.fog[47].dispatcher droppedJobsSLA 14540
scalar FogSequentialForward.fog[47].dispatcher jobs_class_1 14421417
scalar FogSequentialForward.fog[47].dispatcher remoteJobs_class_1 14406873
scalar FogSequentialForward.fog[47].dispatcher localJobs_class_1 4
scalar FogSequentialForward.fog[47].dispatcher droppedJobsSLA_class_1 14540
scalar FogSequentialForward.fog[47].server[0] rho 0.00061095581622794
scalar FogSequentialForward.fog[47].server[0] congestionRatio 0
scalar FogSequentialForward.fog[47].server[0] totalJobs 4
scalar FogSequentialForward.fog[47].server[0] droppedJobsQueue 0
scalar FogSequentialForward.fog[47].server[0] droppedJobsTimout 0
scalar FogSequentialForward.fog[47].server[0] droppedJobsSLA 0
scalar FogSequentialForward.fog[47].server[0] droppedJobsTotal 0
scalar FogSequentialForward.fog[48].dispatcher localJobs 2
scalar FogSequentialForward.fog[48].dispatcher internalJobs 14557
scalar FogSequentialForward.fog[48].dispatcher externalJobs 14407755
scalar FogSequentialForward.fog[48].dispatcher remoteJobs 14407618
scalar FogSequentialForward.fog[48].dispatcher probeQueries 0
scalar FogSequentialForward.fog[48].dispatcher probeAnswers 0
scalar FogSequentialForward.fog[48].dispatcher droppedJobsSLA 14692
scalar FogSequentialForward.fog[48].dispatcher jobs_class_1 14422312
scalar FogSequentialForward.fog[48].dispatcher remoteJobs_class_1 14407618
scalar FogSequentialForward.fog[48].dispatcher localJobs_class_1 2
scalar FogSequentialForward.fog[48].dispatcher droppedJobsSLA_class_1 14692
scalar FogSequentialForward.fog[48].server[0] rho 0.00031820661388338
scalar FogSequentialForward.fog[48].server[0] congestionRatio 0
scalar FogSequentialForward.fog[48].server[0] totalJobs 2
scalar FogSequentialForward.fog[48].server[0] droppedJobsQueue 0
scalar FogSequentialForward.fog[48].server[0] droppedJobsTimout 0
scalar FogSequentialForward.fog[48].server[0] droppedJobsSLA 0
scalar FogSequentialForward.fog[48].server[0] droppedJobsTotal 0
scalar FogSequentialForward.fog[49].dispatcher localJobs 7
scalar FogSequentialForward.fog[49].dispatcher internalJobs 14390
scalar FogSequentialForward.fog[49].dispatcher externalJobs 14407068
scalar FogSequentialForward.fog[49].dispatcher remoteJobs 14407008
scalar FogSequentialForward.fog[49].dispatcher probeQueries 0
scalar FogSequentialForward.fog[49].dispatcher probeAnswers 0
scalar FogSequentialForward.fog[49].dispatcher droppedJobsSLA 14443
scalar FogSequentialForward.fog[49].dispatcher jobs_class_1 14421458
scalar FogSequentialForward.fog[49].dispatcher remoteJobs_class_1 14407008
scalar FogSequentialForward.fog[49].dispatcher localJobs_class_1 7
scalar FogSequentialForward.fog[49].dispatcher droppedJobsSLA_class_1 14443
scalar FogSequentialForward.fog[49].server[0] rho 0.0010977191850543
scalar FogSequentialForward.fog[49].server[0] congestionRatio 0
scalar FogSequentialForward.fog[49].server[0] totalJobs 7
scalar FogSequentialForward.fog[49].server[0] droppedJobsQueue 0
scalar FogSequentialForward.fog[49].server[0] droppedJobsTimout 0
scalar FogSequentialForward.fog[49].server[0] droppedJobsSLA 0
scalar FogSequentialForward.fog[49].server[0] droppedJobsTotal 0
scalar FogSequentialForward.fog[50].dispatcher localJobs 2
scalar FogSequentialForward.fog[50].dispatcher internalJobs 14433
scalar FogSequentialForward.fog[50].dispatcher externalJobs 14399708
scalar FogSequentialForward.fog[50].dispatcher remoteJobs 14399719
scalar FogSequentialForward.fog[50].dispatcher probeQueries 0
scalar FogSequentialForward.fog[50].dispatcher probeAnswers 0
scalar FogSequentialForward.fog[50].dispatcher droppedJobsSLA 14420
scalar FogSequentialForward.fog[50].dispatcher jobs_class_1 14414141
scalar FogSequentialForward.fog[50].dispatcher remoteJobs_class_1 14399719
scalar FogSequentialForward.fog[50].dispatcher localJobs_class_1 2
scalar FogSequentialForward.fog[50].dispatcher droppedJobsSLA_class_1 14420
scalar FogSequentialForward.fog[50].server[0] rho 0.00030879667610861
scalar FogSequentialForward.fog[50].server[0] congestionRatio 0
scalar FogSequentialForward.fog[50].server[0] totalJobs 2
scalar FogSequentialForward.fog[50].server[0] droppedJobsQueue 0
scalar FogSequentialForward.fog[50].server[0] droppedJobsTimout 0
scalar FogSequentialForward.fog[50].server[0] droppedJobsSLA 0
scalar FogSequentialForward.fog[50].server[0] droppedJobsTotal 0
scalar FogSequentialForward.fog[51].dispatcher localJobs 5
scalar FogSequentialForward.fog[51].dispatcher internalJobs 14502
scalar FogSequentialForward.fog[51].dispatcher externalJobs 14407847
scalar FogSequentialForward.fog[51].dispatcher remoteJobs 14407955
scalar FogSequentialForward.fog[51].dispatcher probeQueries 0
scalar FogSequentialForward.fog[51].dispatcher probeAnswers 0
scalar FogSequentialForward.fog[51].dispatcher droppedJobsSLA 14389
scalar FogSequentialForward.fog[51].dispatcher jobs_class_1 14422349
scalar FogSequentialForward.fog[51].dispatcher remoteJobs_class_1 14407955
scalar FogSequentialForward.fog[51].dispatcher localJobs_class_1 5
scalar FogSequentialForward.fog[51].dispatcher droppedJobsSLA_class_1 14389
scalar FogSequentialForward.fog[51].server[0] rho 0.00077123916707933
scalar FogSequentialForward.fog[51].server[0] congestionRatio 0
scalar FogSequentialForward.fog[51].server[0] totalJobs 5
scalar FogSequentialForward.fog[51].server[0] droppedJobsQueue 0
scalar FogSequentialForward.fog[51].server[0] droppedJobsTimout 0
scalar FogSequentialForward.fog[51].server[0] droppedJobsSLA 0
scalar FogSequentialForward.fog[51].server[0] droppedJobsTotal 0
scalar FogSequentialForward.fog[52].dispatcher localJobs 3
scalar FogSequentialForward.fog[52].dispatcher internalJobs 14530
scalar FogSequentialForward.fog[52].dispatcher externalJobs 14399023
scalar FogSequentialForward.fog[52].dispatcher remoteJobs 14399220
scalar FogSequentialForward.fog[52].dispatcher probeQueries 0
scalar FogSequentialForward.fog[52].dispatcher probeAnswers 0
scalar FogSequentialForward.fog[52].dispatcher droppedJobsSLA 14330
scalar FogSequentialForward.fog[52].dispatcher jobs_class_1 14413553
scalar FogSequentialForward.fog[52].dispatcher remoteJobs_class_1 14399220
scalar FogSequentialForward.fog[52].dispatcher localJobs_class_1 3
scalar FogSequentialForward.fog[52].dispatcher droppedJobsSLA_class_1 14330
scalar FogSequentialForward.fog[52].server[0] rho 0.00046042315079831
scalar FogSequentialForward.fog[52].server[0] congestionRatio 0
scalar FogSequentialForward.fog[52].server[0] totalJobs 3
scalar FogSequentialForward.fog[52].server[0] droppedJobsQueue 0
scalar FogSequentialForward.fog[52].server[0] droppedJobsTimout 0
scalar FogSequentialForward.fog[52].server[0] droppedJobsSLA 0
scalar FogSequentialForward.fog[52].server[0] droppedJobsTotal 0
scalar FogSequentialForward.fog[53].dispatcher localJobs 2
scalar FogSequentialForward.fog[53].dispatcher internalJobs 14364
scalar FogSequentialForward.fog[53].dispatcher externalJobs 14411230
scalar FogSequentialForward.fog[53].dispatcher remoteJobs 14411354
scalar FogSequentialForward.fog[53].dispatcher probeQueries 0
scalar FogSequentialForward.fog[53].dispatcher probeAnswers 0
scalar FogSequentialForward.fog[53].dispatcher droppedJobsSLA 14238
scalar FogSequentialForward.fog[53].dispatcher jobs_class_1 14425594
scalar FogSequentialForward.fog[53].dispatcher remoteJobs_class_1 14411354
scalar FogSequentialForward.fog[53].dispatcher localJobs_class_1 2
scalar FogSequentialForward.fog[53].dispatcher droppedJobsSLA_class_1 14238
scalar FogSequentialForward.fog[53].server[0] rho 0.00030569499358535
scalar FogSequentialForward.fog[53].server[0] congestionRatio 0
scalar FogSequentialForward.fog[53].server[0] totalJobs 2
scalar FogSequentialForward.fog[53].server[0] droppedJobsQueue 0
scalar FogSequentialForward.fog[53].server[0] droppedJobsTimout 0
scalar FogSequentialForward.fog[53].server[0] droppedJobsSLA 0
scalar FogSequentialForward.fog[53].server[0] droppedJobsTotal 0
scalar FogSequentialForward.fog[54].dispatcher localJobs 6
scalar FogSequentialForward.fog[54].dispatcher internalJobs 14336
scalar FogSequentialForward.fog[54].dispatcher externalJobs 14412294
scalar FogSequentialForward.fog[54].dispatcher remoteJobs 14412314
scalar FogSequentialForward.fog[54].dispatcher probeQueries 0
scalar FogSequentialForward.fog[54].dispatcher probeAnswers 0
scalar FogSequentialForward.fog[54].dispatcher droppedJobsSLA 14310
scalar FogSequentialForward.fog[54].dispatcher jobs_class_1 14426630
scalar FogSequentialForward.fog[54].dispatcher remoteJobs_class_1 14412314
scalar FogSequentialForward.fog[54].dispatcher localJobs_class_1 6
scalar FogSequentialForward.fog[54].dispatcher droppedJobsSLA_class_1 14310
scalar FogSequentialForward.fog[54].server[0] rho 0.00092426786432043
scalar FogSequentialForward.fog[54].server[0] congestionRatio 0
scalar FogSequentialForward.fog[54].server[0] totalJobs 6
scalar FogSequentialForward.fog[54].server[0] droppedJobsQueue 0
scalar FogSequentialForward.fog[54].server[0] droppedJobsTimout 0
scalar FogSequentialForward.fog[54].server[0] droppedJobsSLA 0
scalar FogSequentialForward.fog[54].server[0] droppedJobsTotal 0
scalar FogSequentialForward.fog[55].dispatcher localJobs 3
scalar FogSequentialForward.fog[55].dispatcher internalJobs 14463
scalar FogSequentialForward.fog[55].dispatcher externalJobs 14411340
scalar FogSequentialForward.fog[55].dispatcher remoteJobs 14411489
scalar FogSequentialForward.fog[55].dispatcher probeQueries 0
scalar FogSequentialForward.fog[55].dispatcher probeAnswers 0
scalar FogSequentialForward.fog[55].dispatcher droppedJobsSLA 14311
scalar FogSequentialForward.fog[55].dispatcher jobs_class_1 14425803
scalar FogSequentialForward.fog[55].dispatcher remoteJobs_class_1 14411489
scalar FogSequentialForward.fog[55].dispatcher localJobs_class_1 3
scalar FogSequentialForward.fog[55].dispatcher droppedJobsSLA_class_1 14311
scalar FogSequentialForward.fog[55].server[0] rho 0.0004608997842297
scalar FogSequentialForward.fog[55].server[0] congestionRatio 0
scalar FogSequentialForward.fog[55].server[0] totalJobs 3
scalar FogSequentialForward.fog[55].server[0] droppedJobsQueue 0
scalar FogSequentialForward.fog[55].server[0] droppedJobsTimout 0
scalar FogSequentialForward.fog[55].server[0] droppedJobsSLA 0
scalar FogSequentialForward.fog[55].server[0] droppedJobsTotal 0
scalar FogSequentialForward.fog[56].dispatcher localJobs 3
scalar FogSequentialForward.fog[56].dispatcher internalJobs 14175
scalar FogSequentialForward.fog[56].dispatcher externalJobs 14403551
scalar FogSequentialForward.fog[56].dispatcher remoteJobs 14403288
scalar FogSequentialForward.fog[56].dispatcher probeQueries 0
scalar FogSequentialForward.fog[56].dispatcher probeAnswers 0
scalar FogSequentialForward.fog[56].dispatcher droppedJobsSLA 14435
scalar FogSequentialForward.fog[56].dispatcher jobs_class_1 14417726
scalar FogSequentialForward.fog[56].dispatcher remoteJobs_class_1 14403288
scalar FogSequentialForward.fog[56].dispatcher localJobs_class_1 3
scalar FogSequentialForward.fog[56].dispatcher droppedJobsSLA_class_1 14435
scalar FogSequentialForward.fog[56].server[0] rho 0.00047056519542821
scalar FogSequentialForward.fog[56].server[0] congestionRatio 0
scalar FogSequentialForward.fog[56].server[0] totalJobs 3
scalar FogSequentialForward.fog[56].server[0] droppedJobsQueue 0
scalar FogSequentialForward.fog[56].server[0] droppedJobsTimout 0
scalar FogSequentialForward.fog[56].server[0] droppedJobsSLA 0
scalar FogSequentialForward.fog[56].server[0] droppedJobsTotal 0
scalar FogSequentialForward.fog[57].dispatcher localJobs 1
scalar FogSequentialForward.fog[57].dispatcher internalJobs 14515
scalar FogSequentialForward.fog[57].dispatcher externalJobs 14407577
scalar FogSequentialForward.fog[57].dispatcher remoteJobs 14407722
scalar FogSequentialForward.fog[57].dispatcher probeQueries 0
scalar FogSequentialForward.fog[57].dispatcher probeAnswers 0
scalar FogSequentialForward.fog[57].dispatcher droppedJobsSLA 14369
scalar FogSequentialForward.fog[57].dispatcher jobs_class_1 14422092
scalar FogSequentialForward.fog[57].dispatcher remoteJobs_class_1 14407722
scalar FogSequentialForward.fog[57].dispatcher localJobs_class_1 1
scalar FogSequentialForward.fog[57].dispatcher droppedJobsSLA_class_1 14369
scalar FogSequentialForward.fog[57].server[0] rho 0.00015069635992404
scalar FogSequentialForward.fog[57].server[0] congestionRatio 0
scalar FogSequentialForward.fog[57].server[0] totalJobs 1
scalar FogSequentialForward.fog[57].server[0] droppedJobsQueue 0
scalar FogSequentialForward.fog[57].server[0] droppedJobsTimout 0
scalar FogSequentialForward.fog[57].server[0] droppedJobsSLA 0
scalar FogSequentialForward.fog[57].server[0] droppedJobsTotal 0
scalar FogSequentialForward.fog[58].dispatcher localJobs 3
scalar FogSequentialForward.fog[58].dispatcher internalJobs 14454
scalar FogSequentialForward.fog[58].dispatcher externalJobs 14400441
scalar FogSequentialForward.fog[58].dispatcher remoteJobs 14400406
scalar FogSequentialForward.fog[58].dispatcher probeQueries 0
scalar FogSequentialForward.fog[58].dispatcher probeAnswers 0
scalar FogSequentialForward.fog[58].dispatcher droppedJobsSLA 14486
scalar FogSequentialForward.fog[58].dispatcher jobs_class_1 14414895
scalar FogSequentialForward.fog[58].dispatcher remoteJobs_class_1 14400406
scalar FogSequentialForward.fog[58].dispatcher localJobs_class_1 3
scalar FogSequentialForward.fog[58].dispatcher droppedJobsSLA_class_1 14486
scalar FogSequentialForward.fog[58].server[0] rho 0.00046531358384527
scalar FogSequentialForward.fog[58].server[0] congestionRatio 0
scalar FogSequentialForward.fog[58].server[0] totalJobs 3
scalar FogSequentialForward.fog[58].server[0] droppedJobsQueue 0
scalar FogSequentialForward.fog[58].server[0] droppedJobsTimout 0
scalar FogSequentialForward.fog[58].server[0] droppedJobsSLA 0
scalar FogSequentialForward.fog[58].server[0] droppedJobsTotal 0
scalar FogSequentialForward.fog[59].dispatcher localJobs 5
scalar FogSequentialForward.fog[59].dispatcher internalJobs 14254
scalar FogSequentialForward.fog[59].dispatcher externalJobs 14408752
scalar FogSequentialForward.fog[59].dispatcher remoteJobs 14408590
scalar FogSequentialForward.fog[59].dispatcher probeQueries 0
scalar FogSequentialForward.fog[59].dispatcher probeAnswers 0
scalar FogSequentialForward.fog[59].dispatcher droppedJobsSLA 14411
scalar FogSequentialForward.fog[59].dispatcher jobs_class_1 14423006
scalar FogSequentialForward.fog[59].dispatcher remoteJobs_class_1 14408590
scalar FogSequentialForward.fog[59].dispatcher localJobs_class_1 5
scalar FogSequentialForward.fog[59].dispatcher droppedJobsSLA_class_1 14411
scalar FogSequentialForward.fog[59].server[0] rho 0.00077854009578004
scalar FogSequentialForward.fog[59].server[0] congestionRatio 0
scalar FogSequentialForward.fog[59].server[0] totalJobs 5
scalar FogSequentialForward.fog[59].server[0] droppedJobsQueue 0
scalar FogSequentialForward.fog[59].server[0] droppedJobsTimout 0
scalar FogSequentialForward.fog[59].server[0] droppedJobsSLA 0
scalar FogSequentialForward.fog[59].server[0] droppedJobsTotal 0
scalar FogSequentialForward.fog[60].dispatcher localJobs 2
scalar FogSequentialForward.fog[60].dispatcher internalJobs 14249
scalar FogSequentialForward.fog[60].dispatcher externalJobs 14409024
scalar FogSequentialForward.fog[60].dispatcher remoteJobs 14408802
scalar FogSequentialForward.fog[60].dispatcher probeQueries 0
scalar FogSequentialForward.fog[60].dispatcher probeAnswers 0
scalar FogSequentialForward.fog[60].dispatcher droppedJobsSLA 14469
scalar FogSequentialForward.fog[60].dispatcher jobs_class_1 14423273
scalar FogSequentialForward.fog[60].dispatcher remoteJobs_class_1 14408802
scalar FogSequentialForward.fog[60].dispatcher localJobs_class_1 2
scalar FogSequentialForward.fog[60].dispatcher droppedJobsSLA_class_1 14469
scalar FogSequentialForward.fog[60].server[0] rho 0.00030981487361714
scalar FogSequentialForward.fog[60].server[0] congestionRatio 0
scalar FogSequentialForward.fog[60].server[0] totalJobs 2
scalar FogSequentialForward.fog[60].server[0] droppedJobsQueue 0
scalar FogSequentialForward.fog[60].server[0] droppedJobsTimout 0
scalar FogSequentialForward.fog[60].server[0] droppedJobsSLA 0
scalar FogSequentialForward.fog[60].server[0] droppedJobsTotal 0
scalar FogSequentialForward.fog[61].dispatcher localJobs 2
scalar FogSequentialForward.fog[61].dispatcher internalJobs 14532
scalar FogSequentialForward.fog[61].dispatcher externalJobs 14405025
scalar FogSequentialForward.fog[61].dispatcher remoteJobs 14405192
scalar FogSequentialForward.fog[61].dispatcher probeQueries 0
scalar FogSequentialForward.fog[61].dispatcher probeAnswers 0
scalar FogSequentialForward.fog[61].dispatcher droppedJobsSLA 14363
scalar FogSequentialForward.fog[61].dispatcher jobs_class_1 14419557
scalar FogSequentialForward.fog[61].dispatcher remoteJobs_class_1 14405192
scalar FogSequentialForward.fog[61].dispatcher localJobs_class_1 2
scalar FogSequentialForward.fog[61].dispatcher droppedJobsSLA_class_1 14363
scalar FogSequentialForward.fog[61].server[0] rho 0.00031423376640305
scalar FogSequentialForward.fog[61].server[0] congestionRatio 0
scalar FogSequentialForward.fog[61].server[0] totalJobs 2
scalar FogSequentialForward.fog[61].server[0] droppedJobsQueue 0
scalar FogSequentialForward.fog[61].server[0] droppedJobsTimout 0
scalar FogSequentialForward.fog[61].server[0] droppedJobsSLA 0
scalar FogSequentialForward.fog[61].server[0] droppedJobsTotal 0
scalar FogSequentialForward.fog[62].dispatcher localJobs 7
scalar FogSequentialForward.fog[62].dispatcher internalJobs 14415
scalar FogSequentialForward.fog[62].dispatcher externalJobs 14402671
scalar FogSequentialForward.fog[62].dispatcher remoteJobs 14402810
scalar FogSequentialForward.fog[62].dispatcher probeQueries 0
scalar FogSequentialForward.fog[62].dispatcher probeAnswers 0
scalar FogSequentialForward.fog[62].dispatcher droppedJobsSLA 14269
scalar FogSequentialForward.fog[62].dispatcher jobs_class_1 14417086
scalar FogSequentialForward.fog[62].dispatcher remoteJobs_class_1 14402810
scalar FogSequentialForward.fog[62].dispatcher localJobs_class_1 7
scalar FogSequentialForward.fog[62].dispatcher droppedJobsSLA_class_1 14269
scalar FogSequentialForward.fog[62].server[0] rho 0.0010853016283363
scalar FogSequentialForward.fog[62].server[0] congestionRatio 0
scalar FogSequentialForward.fog[62].server[0] totalJobs 7
scalar FogSequentialForward.fog[62].server[0] droppedJobsQueue 0
scalar FogSequentialForward.fog[62].server[0] droppedJobsTimout 0
scalar FogSequentialForward.fog[62].server[0] droppedJobsSLA 0
scalar FogSequentialForward.fog[62].server[0] droppedJobsTotal 0
scalar FogSequentialForward.fog[63].dispatcher localJobs 3
scalar FogSequentialForward.fog[63].dispatcher internalJobs 14121
scalar FogSequentialForward.fog[63].dispatcher externalJobs 14403115
scalar FogSequentialForward.fog[63].dispatcher remoteJobs 14402672
scalar FogSequentialForward.fog[63].dispatcher probeQueries 0
scalar FogSequentialForward.fog[63].dispatcher probeAnswers 0
scalar FogSequentialForward.fog[63].dispatcher droppedJobsSLA 14561
scalar FogSequentialForward.fog[63].dispatcher jobs_class_1 14417236
scalar FogSequentialForward.fog[63].dispatcher remoteJobs_class_1 14402672
scalar FogSequentialForward.fog[63].dispatcher localJobs_class_1 3
scalar FogSequentialForward.fog[63].dispatcher droppedJobsSLA_class_1 14561
scalar FogSequentialForward.fog[63].server[0] rho 0.0004610026080627
scalar FogSequentialForward.fog[63].server[0] congestionRatio 0
scalar FogSequentialForward.fog[63].server[0] totalJobs 3
scalar FogSequentialForward.fog[63].server[0] droppedJobsQueue 0
scalar FogSequentialForward.fog[63].server[0] droppedJobsTimout 0
scalar FogSequentialForward.fog[63].server[0] droppedJobsSLA 0
scalar FogSequentialForward.fog[63].server[0] droppedJobsTotal 0
scalar FogSequentialForward.fog[64].dispatcher localJobs 7
scalar FogSequentialForward.fog[64].dispatcher internalJobs 14305
scalar FogSequentialForward.fog[64].dispatcher externalJobs 14399980
scalar FogSequentialForward.fog[64].dispatcher remoteJobs 14400143
scalar FogSequentialForward.fog[64].dispatcher probeQueries 0
scalar FogSequentialForward.fog[64].dispatcher probeAnswers 0
scalar FogSequentialForward.fog[64].dispatcher droppedJobsSLA 14135
scalar FogSequentialForward.fog[64].dispatcher jobs_class_1 14414285
scalar FogSequentialForward.fog[64].dispatcher remoteJobs_class_1 14400143
scalar FogSequentialForward.fog[64].dispatcher localJobs_class_1 7
scalar FogSequentialForward.fog[64].dispatcher droppedJobsSLA_class_1 14135
scalar FogSequentialForward.fog[64].server[0] rho 0.0010819000890478
scalar FogSequentialForward.fog[64].server[0] congestionRatio 0
scalar FogSequentialForward.fog[64].server[0] totalJobs 7
scalar FogSequentialForward.fog[64].server[0] droppedJobsQueue 0
scalar FogSequentialForward.fog[64].server[0] droppedJobsTimout 0
scalar FogSequentialForward.fog[64].server[0] droppedJobsSLA 0
scalar FogSequentialForward.fog[64].server[0] droppedJobsTotal 0
scalar FogSequentialForward.fog[65].dispatcher localJobs 2
scalar FogSequentialForward.fog[65].dispatcher internalJobs 14497
scalar FogSequentialForward.fog[65].dispatcher externalJobs 14405845
scalar FogSequentialForward.fog[65].dispatcher remoteJobs 14405930
scalar FogSequentialForward.fog[65].dispatcher probeQueries 0
scalar FogSequentialForward.fog[65].dispatcher probeAnswers 0
scalar FogSequentialForward.fog[65].dispatcher droppedJobsSLA 14410
scalar FogSequentialForward.fog[65].dispatcher jobs_class_1 14420342
scalar FogSequentialForward.fog[65].dispatcher remoteJobs_class_1 14405930
scalar FogSequentialForward.fog[65].dispatcher localJobs_class_1 2
scalar FogSequentialForward.fog[65].dispatcher droppedJobsSLA_class_1 14410
scalar FogSequentialForward.fog[65].server[0] rho 0.00031033830600791
scalar FogSequentialForward.fog[65].server[0] congestionRatio 0
scalar FogSequentialForward.fog[65].server[0] totalJobs 2
scalar FogSequentialForward.fog[65].server[0] droppedJobsQueue 0
scalar FogSequentialForward.fog[65].server[0] droppedJobsTimout 0
scalar FogSequentialForward.fog[65].server[0] droppedJobsSLA 0
scalar FogSequentialForward.fog[65].server[0] droppedJobsTotal 0
scalar FogSequentialForward.fog[66].dispatcher localJobs 3
scalar FogSequentialForward.fog[66].dispatcher internalJobs 14548
scalar FogSequentialForward.fog[66].dispatcher externalJobs 14404181
scalar FogSequentialForward.fog[66].dispatcher remoteJobs 14404179
scalar FogSequentialForward.fog[66].dispatcher probeQueries 0
[...]
scalar FogSequentialForward.fog[84].dispatcher remoteJobs 14407448
scalar FogSequentialForward.fog[84].dispatcher probeQueries 0
scalar FogSequentialForward.fog[84].dispatcher probeAnswers 0
scalar FogSequentialForward.fog[84].dispatcher droppedJobsSLA 14487
scalar FogSequentialForward.fog[84].dispatcher jobs_class_1 14421937
scalar FogSequentialForward.fog[84].dispatcher remoteJobs_class_1 14407448
scalar FogSequentialForward.fog[84].dispatcher localJobs_class_1 2
scalar FogSequentialForward.fog[84].dispatcher droppedJobsSLA_class_1 14487
scalar FogSequentialForward.fog[84].server[0] rho 0.00030715466709808
scalar FogSequentialForward.fog[84].server[0] congestionRatio 0
scalar FogSequentialForward.fog[84].server[0] totalJobs 2
scalar FogSequentialForward.fog[84].server[0] droppedJobsQueue 0
scalar FogSequentialForward.fog[84].server[0] droppedJobsTimout 0
scalar FogSequentialForward.fog[84].server[0] droppedJobsSLA 0
scalar FogSequentialForward.fog[84].server[0] droppedJobsTotal 0
scalar FogSequentialForward.fog[85].dispatcher localJobs 4
scalar FogSequentialForward.fog[85].dispatcher internalJobs 14242
scalar FogSequentialForward.fog[85].dispatcher externalJobs 14403891
scalar FogSequentialForward.fog[85].dispatcher remoteJobs 14403637
scalar FogSequentialForward.fog[85].dispatcher probeQueries 0
scalar FogSequentialForward.fog[85].dispatcher probeAnswers 0
scalar FogSequentialForward.fog[85].dispatcher droppedJobsSLA 14492
scalar FogSequentialForward.fog[85].dispatcher jobs_class_1 14418133
scalar FogSequentialForward.fog[85].dispatcher remoteJobs_class_1 14403637
scalar FogSequentialForward.fog[85].dispatcher localJobs_class_1 4
scalar FogSequentialForward.fog[85].dispatcher droppedJobsSLA_class_1 14492
scalar FogSequentialForward.fog[85].server[0] rho 0.00061850121710449
scalar FogSequentialForward.fog[85].server[0] congestionRatio 0
scalar FogSequentialForward.fog[85].server[0] totalJobs 4
scalar FogSequentialForward.fog[85].server[0] droppedJobsQueue 0
scalar FogSequentialForward.fog[85].server[0] droppedJobsTimout 0
scalar FogSequentialForward.fog[85].server[0] droppedJobsSLA 0
scalar FogSequentialForward.fog[85].server[0] droppedJobsTotal 0
scalar FogSequentialForward.fog[86].dispatcher localJobs 6
scalar FogSequentialForward.fog[86].dispatcher internalJobs 14456
scalar FogSequentialForward.fog[86].dispatcher externalJobs 14404146
scalar FogSequentialForward.fog[86].dispatcher remoteJobs 14404289
scalar FogSequentialForward.fog[86].dispatcher probeQueries 0
scalar FogSequentialForward.fog[86].dispatcher probeAnswers 0
scalar FogSequentialForward.fog[86].dispatcher droppedJobsSLA 14307
scalar FogSequentialForward.fog[86].dispatcher jobs_class_1 14418602
scalar FogSequentialForward.fog[86].dispatcher remoteJobs_class_1 14404289
scalar FogSequentialForward.fog[86].dispatcher localJobs_class_1 6
scalar FogSequentialForward.fog[86].dispatcher droppedJobsSLA_class_1 14307
scalar FogSequentialForward.fog[86].server[0] rho 0.00092863541794941
scalar FogSequentialForward.fog[86].server[0] congestionRatio 0
scalar FogSequentialForward.fog[86].server[0] totalJobs 6
scalar FogSequentialForward.fog[86].server[0] droppedJobsQueue 0
scalar FogSequentialForward.fog[86].server[0] droppedJobsTimout 0
scalar FogSequentialForward.fog[86].server[0] droppedJobsSLA 0
scalar FogSequentialForward.fog[86].server[0] droppedJobsTotal 0
scalar FogSequentialForward.fog[87].dispatcher localJobs 2
scalar FogSequentialForward.fog[87].dispatcher internalJobs 14508
scalar FogSequentialForward.fog[87].dispatcher externalJobs 14401319
scalar FogSequentialForward.fog[87].dispatcher remoteJobs 14401333
scalar FogSequentialForward.fog[87].dispatcher probeQueries 0
scalar FogSequentialForward.fog[87].dispatcher probeAnswers 0
scalar FogSequentialForward.fog[87].dispatcher droppedJobsSLA 14492
scalar FogSequentialForward.fog[87].dispatcher jobs_class_1 14415827
scalar FogSequentialForward.fog[87].dispatcher remoteJobs_class_1 14401333
scalar FogSequentialForward.fog[87].dispatcher localJobs_class_1 2
scalar FogSequentialForward.fog[87].dispatcher droppedJobsSLA_class_1 14492
scalar FogSequentialForward.fog[87].server[0] rho 0.00030499213607982
scalar FogSequentialForward.fog[87].server[0] congestionRatio 0
scalar FogSequentialForward.fog[87].server[0] totalJobs 2
scalar FogSequentialForward.fog[87].server[0] droppedJobsQueue 0
scalar FogSequentialForward.fog[87].server[0] droppedJobsTimout 0
scalar FogSequentialForward.fog[87].server[0] droppedJobsSLA 0
scalar FogSequentialForward.fog[87].server[0] droppedJobsTotal 0
scalar FogSequentialForward.fog[88].dispatcher localJobs 4
scalar FogSequentialForward.fog[88].dispatcher internalJobs 14414
scalar FogSequentialForward.fog[88].dispatcher externalJobs 14404568
scalar FogSequentialForward.fog[88].dispatcher remoteJobs 14404431
scalar FogSequentialForward.fog[88].dispatcher probeQueries 0
scalar FogSequentialForward.fog[88].dispatcher probeAnswers 0
scalar FogSequentialForward.fog[88].dispatcher droppedJobsSLA 14547
scalar FogSequentialForward.fog[88].dispatcher jobs_class_1 14418982
scalar FogSequentialForward.fog[88].dispatcher remoteJobs_class_1 14404431
scalar FogSequentialForward.fog[88].dispatcher localJobs_class_1 4
scalar FogSequentialForward.fog[88].dispatcher droppedJobsSLA_class_1 14547
scalar FogSequentialForward.fog[88].server[0] rho 0.00061213655862957
scalar FogSequentialForward.fog[88].server[0] congestionRatio 0
scalar FogSequentialForward.fog[88].server[0] totalJobs 4
scalar FogSequentialForward.fog[88].server[0] droppedJobsQueue 0
scalar FogSequentialForward.fog[88].server[0] droppedJobsTimout 0
scalar FogSequentialForward.fog[88].server[0] droppedJobsSLA 0
scalar FogSequentialForward.fog[88].server[0] droppedJobsTotal 0
scalar FogSequentialForward.fog[89].dispatcher localJobs 3
scalar FogSequentialForward.fog[89].dispatcher internalJobs 14538
scalar FogSequentialForward.fog[89].dispatcher externalJobs 14407566
scalar FogSequentialForward.fog[89].dispatcher remoteJobs 14407686
scalar FogSequentialForward.fog[89].dispatcher probeQueries 0
scalar FogSequentialForward.fog[89].dispatcher probeAnswers 0
scalar FogSequentialForward.fog[89].dispatcher droppedJobsSLA 14415
scalar FogSequentialForward.fog[89].dispatcher jobs_class_1 14422104
scalar FogSequentialForward.fog[89].dispatcher remoteJobs_class_1 14407686
scalar FogSequentialForward.fog[89].dispatcher localJobs_class_1 3
scalar FogSequentialForward.fog[89].dispatcher droppedJobsSLA_class_1 14415
scalar FogSequentialForward.fog[89].server[0] rho 0.00046949641546234
scalar FogSequentialForward.fog[89].server[0] congestionRatio 0
scalar FogSequentialForward.fog[89].server[0] totalJobs 3
scalar FogSequentialForward.fog[89].server[0] droppedJobsQueue 0
scalar FogSequentialForward.fog[89].server[0] droppedJobsTimout 0
scalar FogSequentialForward.fog[89].server[0] droppedJobsSLA 0
scalar FogSequentialForward.fog[89].server[0] droppedJobsTotal 0
scalar FogSequentialForward.fog[90].dispatcher localJobs 2
scalar FogSequentialForward.fog[90].dispatcher internalJobs 14410
scalar FogSequentialForward.fog[90].dispatcher externalJobs 14405803
scalar FogSequentialForward.fog[90].dispatcher remoteJobs 14405834
scalar FogSequentialForward.fog[90].dispatcher probeQueries 0
scalar FogSequentialForward.fog[90].dispatcher probeAnswers 0
scalar FogSequentialForward.fog[90].dispatcher droppedJobsSLA 14377
scalar FogSequentialForward.fog[90].dispatcher jobs_class_1 14420213
scalar FogSequentialForward.fog[90].dispatcher remoteJobs_class_1 14405834
scalar FogSequentialForward.fog[90].dispatcher localJobs_class_1 2
scalar FogSequentialForward.fog[90].dispatcher droppedJobsSLA_class_1 14377
scalar FogSequentialForward.fog[90].server[0] rho 0.00030751037411392
scalar FogSequentialForward.fog[90].server[0] congestionRatio 0
scalar FogSequentialForward.fog[90].server[0] totalJobs 2
scalar FogSequentialForward.fog[90].server[0] droppedJobsQueue 0
scalar FogSequentialForward.fog[90].server[0] droppedJobsTimout 0
scalar FogSequentialForward.fog[90].server[0] droppedJobsSLA 0
scalar FogSequentialForward.fog[90].server[0] droppedJobsTotal 0
scalar FogSequentialForward.fog[91].dispatcher localJobs 1
scalar FogSequentialForward.fog[91].dispatcher internalJobs 14514
scalar FogSequentialForward.fog[91].dispatcher externalJobs 14408175
scalar FogSequentialForward.fog[91].dispatcher remoteJobs 14408216
scalar FogSequentialForward.fog[91].dispatcher probeQueries 0
scalar FogSequentialForward.fog[91].dispatcher probeAnswers 0
scalar FogSequentialForward.fog[91].dispatcher droppedJobsSLA 14472
scalar FogSequentialForward.fog[91].dispatcher jobs_class_1 14422689
scalar FogSequentialForward.fog[91].dispatcher remoteJobs_class_1 14408216
scalar FogSequentialForward.fog[91].dispatcher localJobs_class_1 1
scalar FogSequentialForward.fog[91].dispatcher droppedJobsSLA_class_1 14472
scalar FogSequentialForward.fog[91].server[0] rho 0.00015413147048093
scalar FogSequentialForward.fog[91].server[0] congestionRatio 0
scalar FogSequentialForward.fog[91].server[0] totalJobs 1
scalar FogSequentialForward.fog[91].server[0] droppedJobsQueue 0
scalar FogSequentialForward.fog[91].server[0] droppedJobsTimout 0
scalar FogSequentialForward.fog[91].server[0] droppedJobsSLA 0
scalar FogSequentialForward.fog[91].server[0] droppedJobsTotal 0
scalar FogSequentialForward.fog[92].dispatcher localJobs 3
scalar FogSequentialForward.fog[92].dispatcher internalJobs 14406
scalar FogSequentialForward.fog[92].dispatcher externalJobs 14409062
scalar FogSequentialForward.fog[92].dispatcher remoteJobs 14408900
scalar FogSequentialForward.fog[92].dispatcher probeQueries 0
scalar FogSequentialForward.fog[92].dispatcher probeAnswers 0
scalar FogSequentialForward.fog[92].dispatcher droppedJobsSLA 14565
scalar FogSequentialForward.fog[92].dispatcher jobs_class_1 14423468
scalar FogSequentialForward.fog[92].dispatcher remoteJobs_class_1 14408900
scalar FogSequentialForward.fog[92].dispatcher localJobs_class_1 3
scalar FogSequentialForward.fog[92].dispatcher droppedJobsSLA_class_1 14565
scalar FogSequentialForward.fog[92].server[0] rho 0.00045794364996254
scalar FogSequentialForward.fog[92].server[0] congestionRatio 0
scalar FogSequentialForward.fog[92].server[0] totalJobs 3
scalar FogSequentialForward.fog[92].server[0] droppedJobsQueue 0
scalar FogSequentialForward.fog[92].server[0] droppedJobsTimout 0
scalar FogSequentialForward.fog[92].server[0] droppedJobsSLA 0
scalar FogSequentialForward.fog[92].server[0] droppedJobsTotal 0
scalar FogSequentialForward.fog[93].dispatcher localJobs 7
scalar FogSequentialForward.fog[93].dispatcher internalJobs 14432
scalar FogSequentialForward.fog[93].dispatcher externalJobs 14406584
scalar FogSequentialForward.fog[93].dispatcher remoteJobs 14406623
scalar FogSequentialForward.fog[93].dispatcher probeQueries 0
scalar FogSequentialForward.fog[93].dispatcher probeAnswers 0
scalar FogSequentialForward.fog[93].dispatcher droppedJobsSLA 14386
scalar FogSequentialForward.fog[93].dispatcher jobs_class_1 14421016
scalar FogSequentialForward.fog[93].dispatcher remoteJobs_class_1 14406623
scalar FogSequentialForward.fog[93].dispatcher localJobs_class_1 7
scalar FogSequentialForward.fog[93].dispatcher droppedJobsSLA_class_1 14386
scalar FogSequentialForward.fog[93].server[0] rho 0.0010921159991995
scalar FogSequentialForward.fog[93].server[0] congestionRatio 0
scalar FogSequentialForward.fog[93].server[0] totalJobs 7
scalar FogSequentialForward.fog[93].server[0] droppedJobsQueue 0
scalar FogSequentialForward.fog[93].server[0] droppedJobsTimout 0
scalar FogSequentialForward.fog[93].server[0] droppedJobsSLA 0
scalar FogSequentialForward.fog[93].server[0] droppedJobsTotal 0
scalar FogSequentialForward.fog[94].dispatcher localJobs 3
scalar FogSequentialForward.fog[94].dispatcher internalJobs 14554
scalar FogSequentialForward.fog[94].dispatcher externalJobs 14409059
scalar FogSequentialForward.fog[94].dispatcher remoteJobs 14409404
scalar FogSequentialForward.fog[94].dispatcher probeQueries 0
scalar FogSequentialForward.fog[94].dispatcher probeAnswers 0
scalar FogSequentialForward.fog[94].dispatcher droppedJobsSLA 14206
scalar FogSequentialForward.fog[94].dispatcher jobs_class_1 14423613
scalar FogSequentialForward.fog[94].dispatcher remoteJobs_class_1 14409404
scalar FogSequentialForward.fog[94].dispatcher localJobs_class_1 3
scalar FogSequentialForward.fog[94].dispatcher droppedJobsSLA_class_1 14206
scalar FogSequentialForward.fog[94].server[0] rho 0.00046851861407049
scalar FogSequentialForward.fog[94].server[0] congestionRatio 0
scalar FogSequentialForward.fog[94].server[0] totalJobs 3
scalar FogSequentialForward.fog[94].server[0] droppedJobsQueue 0
scalar FogSequentialForward.fog[94].server[0] droppedJobsTimout 0
scalar FogSequentialForward.fog[94].server[0] droppedJobsSLA 0
scalar FogSequentialForward.fog[94].server[0] droppedJobsTotal 0
scalar FogSequentialForward.fog[95].dispatcher localJobs 3
scalar FogSequentialForward.fog[95].dispatcher internalJobs 14585
scalar FogSequentialForward.fog[95].dispatcher externalJobs 14407288
scalar FogSequentialForward.fog[95].dispatcher remoteJobs 14407551
scalar FogSequentialForward.fog[95].dispatcher probeQueries 0
scalar FogSequentialForward.fog[95].dispatcher probeAnswers 0
scalar FogSequentialForward.fog[95].dispatcher droppedJobsSLA 14319
scalar FogSequentialForward.fog[95].dispatcher jobs_class_1 14421873
scalar FogSequentialForward.fog[95].dispatcher remoteJobs_class_1 14407551
scalar FogSequentialForward.fog[95].dispatcher localJobs_class_1 3
scalar FogSequentialForward.fog[95].dispatcher droppedJobsSLA_class_1 14319
scalar FogSequentialForward.fog[95].server[0] rho 0.00046802693395875
scalar FogSequentialForward.fog[95].server[0] congestionRatio 0
scalar FogSequentialForward.fog[95].server[0] totalJobs 3
scalar FogSequentialForward.fog[95].server[0] droppedJobsQueue 0
scalar FogSequentialForward.fog[95].server[0] droppedJobsTimout 0
scalar FogSequentialForward.fog[95].server[0] droppedJobsSLA 0
scalar FogSequentialForward.fog[95].server[0] droppedJobsTotal 0
scalar FogSequentialForward.fog[96].dispatcher localJobs 3
scalar FogSequentialForward.fog[96].dispatcher internalJobs 14391
scalar FogSequentialForward.fog[96].dispatcher externalJobs 14400763
scalar FogSequentialForward.fog[96].dispatcher remoteJobs 14400848
scalar FogSequentialForward.fog[96].dispatcher probeQueries 0
scalar FogSequentialForward.fog[96].dispatcher probeAnswers 0
scalar FogSequentialForward.fog[96].dispatcher droppedJobsSLA 14303
scalar FogSequentialForward.fog[96].dispatcher jobs_class_1 14415154
scalar FogSequentialForward.fog[96].dispatcher remoteJobs_class_1 14400848
scalar FogSequentialForward.fog[96].dispatcher localJobs_class_1 3
scalar FogSequentialForward.fog[96].dispatcher droppedJobsSLA_class_1 14303
scalar FogSequentialForward.fog[96].server[0] rho 0.00045503402361646
scalar FogSequentialForward.fog[96].server[0] congestionRatio 0
scalar FogSequentialForward.fog[96].server[0] totalJobs 3
scalar FogSequentialForward.fog[96].server[0] droppedJobsQueue 0
scalar FogSequentialForward.fog[96].server[0] droppedJobsTimout 0
scalar FogSequentialForward.fog[96].server[0] droppedJobsSLA 0
scalar FogSequentialForward.fog[96].server[0] droppedJobsTotal 0
scalar FogSequentialForward.fog[97].dispatcher localJobs 3
scalar FogSequentialForward.fog[97].dispatcher internalJobs 14517
scalar FogSequentialForward.fog[97].dispatcher externalJobs 14401032
scalar FogSequentialForward.fog[97].dispatcher remoteJobs 14401107
scalar FogSequentialForward.fog[97].dispatcher probeQueries 0
scalar FogSequentialForward.fog[97].dispatcher probeAnswers 0
scalar FogSequentialForward.fog[97].dispatcher droppedJobsSLA 14439
scalar FogSequentialForward.fog[97].dispatcher jobs_class_1 14415549
scalar FogSequentialForward.fog[97].dispatcher remoteJobs_class_1 14401107
scalar FogSequentialForward.fog[97].dispatcher localJobs_class_1 3
scalar FogSequentialForward.fog[97].dispatcher droppedJobsSLA_class_1 14439
scalar FogSequentialForward.fog[97].server[0] rho 0.0004663523286581
scalar FogSequentialForward.fog[97].server[0] congestionRatio 0
scalar FogSequentialForward.fog[97].server[0] totalJobs 3
scalar FogSequentialForward.fog[97].server[0] droppedJobsQueue 0
scalar FogSequentialForward.fog[97].server[0] droppedJobsTimout 0
scalar FogSequentialForward.fog[97].server[0] droppedJobsSLA 0
scalar FogSequentialForward.fog[97].server[0] droppedJobsTotal 0
scalar FogSequentialForward.fog[98].dispatcher localJobs 2
scalar FogSequentialForward.fog[98].dispatcher internalJobs 14359
scalar FogSequentialForward.fog[98].dispatcher externalJobs 14409497
scalar FogSequentialForward.fog[98].dispatcher remoteJobs 14409435
scalar FogSequentialForward.fog[98].dispatcher probeQueries 0
scalar FogSequentialForward.fog[98].dispatcher probeAnswers 0
scalar FogSequentialForward.fog[98].dispatcher droppedJobsSLA 14419
scalar FogSequentialForward.fog[98].dispatcher jobs_class_1 14423856
scalar FogSequentialForward.fog[98].dispatcher remoteJobs_class_1 14409435
scalar FogSequentialForward.fog[98].dispatcher localJobs_class_1 2
scalar FogSequentialForward.fog[98].dispatcher droppedJobsSLA_class_1 14419
scalar FogSequentialForward.fog[98].server[0] rho 0.00030101343872957
scalar FogSequentialForward.fog[98].server[0] congestionRatio 0
scalar FogSequentialForward.fog[98].server[0] totalJobs 2
scalar FogSequentialForward.fog[98].server[0] droppedJobsQueue 0
scalar FogSequentialForward.fog[98].server[0] droppedJobsTimout 0
scalar FogSequentialForward.fog[98].server[0] droppedJobsSLA 0
scalar FogSequentialForward.fog[98].server[0] droppedJobsTotal 0
scalar FogSequentialForward.fog[99].dispatcher localJobs 3
scalar FogSequentialForward.fog[99].dispatcher internalJobs 14388
scalar FogSequentialForward.fog[99].dispatcher externalJobs 14406062
scalar FogSequentialForward.fog[99].dispatcher remoteJobs 14406284
scalar FogSequentialForward.fog[99].dispatcher probeQueries 0
scalar FogSequentialForward.fog[99].dispatcher probeAnswers 0
scalar FogSequentialForward.fog[99].dispatcher droppedJobsSLA 14163
scalar FogSequentialForward.fog[99].dispatcher jobs_class_1 14420450
scalar FogSequentialForward.fog[99].dispatcher remoteJobs_class_1 14406284
scalar FogSequentialForward.fog[99].dispatcher localJobs_class_1 3
scalar FogSequentialForward.fog[99].dispatcher droppedJobsSLA_class_1 14163
scalar FogSequentialForward.fog[99].server[0] rho 0.00046673702308908
scalar FogSequentialForward.fog[99].server[0] congestionRatio 0
scalar FogSequentialForward.fog[99].server[0] totalJobs 3
scalar FogSequentialForward.fog[99].server[0] droppedJobsQueue 0
scalar FogSequentialForward.fog[99].server[0] droppedJobsTimout 0
scalar FogSequentialForward.fog[99].server[0] droppedJobsSLA 0
scalar FogSequentialForward.fog[99].server[0] droppedJobsTotal 0
scalar FogSequentialForward.sink avg_responseTime_1 3.5498833399391
scalar FogSequentialForward.sink p90_responseTime_1 1.597556918533
scalar FogSequentialForward.sink med_responseTime_1 1.597556918533
scalar FogSequentialForward.sink avg_delayTime_1 0
scalar FogSequentialForward.sink p90_delayTime_1 0
scalar FogSequentialForward.sink med_delayTime_1 0
scalar FogSequentialForward.sink avg_queuingTime_1 1.8841420054708
scalar FogSequentialForward.sink p90_queuingTime_1 0
scalar FogSequentialForward.sink med_queuingTime_1 0
scalar FogSequentialForward.sink avg_serviceTime_1 1.665637284624
scalar FogSequentialForward.sink p90_serviceTime_1 1.562344863897
scalar FogSequentialForward.sink med_serviceTime_1 1.562344863897
scalar FogSequentialForward.sink avg_balancerTime_1 0.00010404984423676
scalar FogSequentialForward.sink p90_balancerTime_1 0
scalar FogSequentialForward.sink med_balancerTime_1 0
scalar FogSequentialForward.sink avg_balancerCount_1 1.006230529595
scalar FogSequentialForward.sink p90_balancerCount_1 1
scalar FogSequentialForward.sink med_balancerCount_1 1

