version 2
run Fog-mul_001-rho_09-thr_14-0-20190713-22:04:16-77543
attr configname Fog-mul_001-rho_09-thr_14
attr datetime 20190713-22:04:16
attr experiment Fog-mul_001-rho_09-thr_14
attr inifile FogSequentialForward.ini
attr iterationvars ""
attr iterationvarsf ""
attr measurement ""
attr network FogSequentialForward
attr processid 77543
attr repetition 0
attr replication #0
attr resultdir results
attr runnumber 0
attr seedset 0
param FogSequentialForward.proctimeMul 0.01
param FogSequentialForward.rho 0.9
param FogSequentialForward.fog[*].dispatcher.thr 14
param FogSequentialForward.nSources 100
param FogSequentialForward.rho 0.9
param FogSequentialForward.proctimeMul 1.0
param FogSequentialForward.source[*].appId 1
param FogSequentialForward.source[*].realTime true
param FogSequentialForward.source[*].multiHop true
param FogSequentialForward.fog[*].nServers 1
param FogSequentialForward.fog[*].dispatcher.fanOut 1
param FogSequentialForward.fog[*].server[*].timeSlice -1s
param FogSequentialForward.fog[*].server[*].timeout -1s
param FogSequentialForward.fog[*].server[*].capacity 20
param FogSequentialForward.fog[*].server[*].fifo true
param FogSequentialForward.fog[*].server[*].maxServiceTime -1s
param FogSequentialForward.fog[*].dispatcher.thr 1

scalar FogSequentialForward.fog[0].dispatcher localJobs 1508120
scalar FogSequentialForward.fog[0].dispatcher internalJobs 1621614
scalar FogSequentialForward.fog[0].dispatcher externalJobs 5230388
scalar FogSequentialForward.fog[0].dispatcher remoteJobs 5229540
scalar FogSequentialForward.fog[0].dispatcher probeQueries 0
scalar FogSequentialForward.fog[0].dispatcher probeAnswers 0
scalar FogSequentialForward.fog[0].dispatcher droppedJobsSLA 114342
scalar FogSequentialForward.fog[0].dispatcher jobs_class_1 6852002
scalar FogSequentialForward.fog[0].dispatcher remoteJobs_class_1 5229540
scalar FogSequentialForward.fog[0].dispatcher localJobs_class_1 1508120
scalar FogSequentialForward.fog[0].dispatcher droppedJobsSLA_class_1 114342
scalar FogSequentialForward.fog[0].server[0] rho 1
scalar FogSequentialForward.fog[0].server[0] congestionRatio 0
scalar FogSequentialForward.fog[0].server[0] totalJobs 1508120
scalar FogSequentialForward.fog[0].server[0] droppedJobsQueue 79995
scalar FogSequentialForward.fog[0].server[0] droppedJobsTimout 0
scalar FogSequentialForward.fog[0].server[0] droppedJobsSLA 997670
scalar FogSequentialForward.fog[0].server[0] droppedJobsTotal 1077665
scalar FogSequentialForward.fog[1].dispatcher localJobs 1507844
scalar FogSequentialForward.fog[1].dispatcher internalJobs 1621338
scalar FogSequentialForward.fog[1].dispatcher externalJobs 5233558
scalar FogSequentialForward.fog[1].dispatcher remoteJobs 5232322
scalar FogSequentialForward.fog[1].dispatcher probeQueries 0
scalar FogSequentialForward.fog[1].dispatcher probeAnswers 0
scalar FogSequentialForward.fog[1].dispatcher droppedJobsSLA 114730
scalar FogSequentialForward.fog[1].dispatcher jobs_class_1 6854896
scalar FogSequentialForward.fog[1].dispatcher remoteJobs_class_1 5232322
scalar FogSequentialForward.fog[1].dispatcher localJobs_class_1 1507844
scalar FogSequentialForward.fog[1].dispatcher droppedJobsSLA_class_1 114730
scalar FogSequentialForward.fog[1].server[0] rho 1
scalar FogSequentialForward.fog[1].server[0] congestionRatio 0
scalar FogSequentialForward.fog[1].server[0] totalJobs 1507844
scalar FogSequentialForward.fog[1].server[0] droppedJobsQueue 80185
scalar FogSequentialForward.fog[1].server[0] droppedJobsTimout 0
scalar FogSequentialForward.fog[1].server[0] droppedJobsSLA 997236
scalar FogSequentialForward.fog[1].server[0] droppedJobsTotal 1077421
scalar FogSequentialForward.fog[2].dispatcher localJobs 1508854
scalar FogSequentialForward.fog[2].dispatcher internalJobs 1623041
scalar FogSequentialForward.fog[2].dispatcher externalJobs 5231455
scalar FogSequentialForward.fog[2].dispatcher remoteJobs 5230774
scalar FogSequentialForward.fog[2].dispatcher probeQueries 0
scalar FogSequentialForward.fog[2].dispatcher probeAnswers 0
scalar FogSequentialForward.fog[2].dispatcher droppedJobsSLA 114868
scalar FogSequentialForward.fog[2].dispatcher jobs_class_1 6854496
scalar FogSequentialForward.fog[2].dispatcher remoteJobs_class_1 5230774
scalar FogSequentialForward.fog[2].dispatcher localJobs_class_1 1508854
scalar FogSequentialForward.fog[2].dispatcher droppedJobsSLA_class_1 114868
scalar FogSequentialForward.fog[2].server[0] rho 1
scalar FogSequentialForward.fog[2].server[0] congestionRatio 0
scalar FogSequentialForward.fog[2].server[0] totalJobs 1508854
scalar FogSequentialForward.fog[2].server[0] droppedJobsQueue 80125
scalar FogSequentialForward.fog[2].server[0] droppedJobsTimout 0
scalar FogSequentialForward.fog[2].server[0] droppedJobsSLA 997874
scalar FogSequentialForward.fog[2].server[0] droppedJobsTotal 1077999
scalar FogSequentialForward.fog[3].dispatcher localJobs 1508700
scalar FogSequentialForward.fog[3].dispatcher internalJobs 1622606
scalar FogSequentialForward.fog[3].dispatcher externalJobs 5232180
scalar FogSequentialForward.fog[3].dispatcher remoteJobs 5231638
scalar FogSequentialForward.fog[3].dispatcher probeQueries 0
scalar FogSequentialForward.fog[3].dispatcher probeAnswers 0
scalar FogSequentialForward.fog[3].dispatcher droppedJobsSLA 114448
scalar FogSequentialForward.fog[3].dispatcher jobs_class_1 6854786
scalar FogSequentialForward.fog[3].dispatcher remoteJobs_class_1 5231638
scalar FogSequentialForward.fog[3].dispatcher localJobs_class_1 1508700
scalar FogSequentialForward.fog[3].dispatcher droppedJobsSLA_class_1 114448
scalar FogSequentialForward.fog[3].server[0] rho 1
scalar FogSequentialForward.fog[3].server[0] congestionRatio 0
scalar FogSequentialForward.fog[3].server[0] totalJobs 1508700
scalar FogSequentialForward.fog[3].server[0] droppedJobsQueue 80313
scalar FogSequentialForward.fog[3].server[0] droppedJobsTimout 0
scalar FogSequentialForward.fog[3].server[0] droppedJobsSLA 997249
scalar FogSequentialForward.fog[3].server[0] droppedJobsTotal 1077562
scalar FogSequentialForward.fog[4].dispatcher localJobs 1508208
scalar FogSequentialForward.fog[4].dispatcher internalJobs 1623307
scalar FogSequentialForward.fog[4].dispatcher externalJobs 5231383
scalar FogSequentialForward.fog[4].dispatcher remoteJobs 5231724
scalar FogSequentialForward.fog[4].dispatcher probeQueries 0
scalar FogSequentialForward.fog[4].dispatcher probeAnswers 0
scalar FogSequentialForward.fog[4].dispatcher droppedJobsSLA 114758
scalar FogSequentialForward.fog[4].dispatcher jobs_class_1 6854690
scalar FogSequentialForward.fog[4].dispatcher remoteJobs_class_1 5231724
scalar FogSequentialForward.fog[4].dispatcher localJobs_class_1 1508208
scalar FogSequentialForward.fog[4].dispatcher droppedJobsSLA_class_1 114758
scalar FogSequentialForward.fog[4].server[0] rho 0.99999856948853
scalar FogSequentialForward.fog[4].server[0] congestionRatio 0
scalar FogSequentialForward.fog[4].server[0] totalJobs 1508208
scalar FogSequentialForward.fog[4].server[0] droppedJobsQueue 80064
scalar FogSequentialForward.fog[4].server[0] droppedJobsTimout 0
scalar FogSequentialForward.fog[4].server[0] droppedJobsSLA 996625
scalar FogSequentialForward.fog[4].server[0] droppedJobsTotal 1076689
scalar FogSequentialForward.fog[5].dispatcher localJobs 1508715
scalar FogSequentialForward.fog[5].dispatcher internalJobs 1623967
scalar FogSequentialForward.fog[5].dispatcher externalJobs 5232621
scalar FogSequentialForward.fog[5].dispatcher remoteJobs 5233428
scalar FogSequentialForward.fog[5].dispatcher probeQueries 0
scalar FogSequentialForward.fog[5].dispatcher probeAnswers 0
scalar FogSequentialForward.fog[5].dispatcher droppedJobsSLA 114445
scalar FogSequentialForward.fog[5].dispatcher jobs_class_1 6856588
scalar FogSequentialForward.fog[5].dispatcher remoteJobs_class_1 5233428
scalar FogSequentialForward.fog[5].dispatcher localJobs_class_1 1508715
scalar FogSequentialForward.fog[5].dispatcher droppedJobsSLA_class_1 114445
scalar FogSequentialForward.fog[5].server[0] rho 1
scalar FogSequentialForward.fog[5].server[0] congestionRatio 0
scalar FogSequentialForward.fog[5].server[0] totalJobs 1508715
scalar FogSequentialForward.fog[5].server[0] droppedJobsQueue 80086
scalar FogSequentialForward.fog[5].server[0] droppedJobsTimout 0
scalar FogSequentialForward.fog[5].server[0] droppedJobsSLA 997676
scalar FogSequentialForward.fog[5].server[0] droppedJobsTotal 1077762
scalar FogSequentialForward.fog[6].dispatcher localJobs 1507511
scalar FogSequentialForward.fog[6].dispatcher internalJobs 1625546
scalar FogSequentialForward.fog[6].dispatcher externalJobs 5233846
scalar FogSequentialForward.fog[6].dispatcher remoteJobs 5237144
scalar FogSequentialForward.fog[6].dispatcher probeQueries 0
scalar FogSequentialForward.fog[6].dispatcher probeAnswers 0
scalar FogSequentialForward.fog[6].dispatcher droppedJobsSLA 114737
scalar FogSequentialForward.fog[6].dispatcher jobs_class_1 6859392
scalar FogSequentialForward.fog[6].dispatcher remoteJobs_class_1 5237144
scalar FogSequentialForward.fog[6].dispatcher localJobs_class_1 1507511
scalar FogSequentialForward.fog[6].dispatcher droppedJobsSLA_class_1 114737
scalar FogSequentialForward.fog[6].server[0] rho 1
scalar FogSequentialForward.fog[6].server[0] congestionRatio 0
scalar FogSequentialForward.fog[6].server[0] totalJobs 1507511
scalar FogSequentialForward.fog[6].server[0] droppedJobsQueue 80089
scalar FogSequentialForward.fog[6].server[0] droppedJobsTimout 0
scalar FogSequentialForward.fog[6].server[0] droppedJobsSLA 997357
scalar FogSequentialForward.fog[6].server[0] droppedJobsTotal 1077446
scalar FogSequentialForward.fog[7].dispatcher localJobs 1507602
scalar FogSequentialForward.fog[7].dispatcher internalJobs 1622565
scalar FogSequentialForward.fog[7].dispatcher externalJobs 5230179
scalar FogSequentialForward.fog[7].dispatcher remoteJobs 5230244
scalar FogSequentialForward.fog[7].dispatcher probeQueries 0
scalar FogSequentialForward.fog[7].dispatcher probeAnswers 0
scalar FogSequentialForward.fog[7].dispatcher droppedJobsSLA 114898
scalar FogSequentialForward.fog[7].dispatcher jobs_class_1 6852744
scalar FogSequentialForward.fog[7].dispatcher remoteJobs_class_1 5230244
scalar FogSequentialForward.fog[7].dispatcher localJobs_class_1 1507602
scalar FogSequentialForward.fog[7].dispatcher droppedJobsSLA_class_1 114898
scalar FogSequentialForward.fog[7].server[0] rho 1
scalar FogSequentialForward.fog[7].server[0] congestionRatio 0
scalar FogSequentialForward.fog[7].server[0] totalJobs 1507602
scalar FogSequentialForward.fog[7].server[0] droppedJobsQueue 79910
scalar FogSequentialForward.fog[7].server[0] droppedJobsTimout 0
scalar FogSequentialForward.fog[7].server[0] droppedJobsSLA 996240
scalar FogSequentialForward.fog[7].server[0] droppedJobsTotal 1076150
scalar FogSequentialForward.fog[8].dispatcher localJobs 1508640
scalar FogSequentialForward.fog[8].dispatcher internalJobs 1624002
scalar FogSequentialForward.fog[8].dispatcher externalJobs 5233425
scalar FogSequentialForward.fog[8].dispatcher remoteJobs 5233515
scalar FogSequentialForward.fog[8].dispatcher probeQueries 0
scalar FogSequentialForward.fog[8].dispatcher probeAnswers 0
scalar FogSequentialForward.fog[8].dispatcher droppedJobsSLA 115272
scalar FogSequentialForward.fog[8].dispatcher jobs_class_1 6857427
scalar FogSequentialForward.fog[8].dispatcher remoteJobs_class_1 5233515
scalar FogSequentialForward.fog[8].dispatcher localJobs_class_1 1508640
scalar FogSequentialForward.fog[8].dispatcher droppedJobsSLA_class_1 115272
scalar FogSequentialForward.fog[8].server[0] rho 0.99999994039536
scalar FogSequentialForward.fog[8].server[0] congestionRatio 0
scalar FogSequentialForward.fog[8].server[0] totalJobs 1508640
scalar FogSequentialForward.fog[8].server[0] droppedJobsQueue 80121
scalar FogSequentialForward.fog[8].server[0] droppedJobsTimout 0
scalar FogSequentialForward.fog[8].server[0] droppedJobsSLA 997457
scalar FogSequentialForward.fog[8].server[0] droppedJobsTotal 1077578
scalar FogSequentialForward.fog[9].dispatcher localJobs 1508124
scalar FogSequentialForward.fog[9].dispatcher internalJobs 1624609
scalar FogSequentialForward.fog[9].dispatcher externalJobs 5232668
scalar FogSequentialForward.fog[9].dispatcher remoteJobs 5234747
scalar FogSequentialForward.fog[9].dispatcher probeQueries 0
scalar FogSequentialForward.fog[9].dispatcher probeAnswers 0
scalar FogSequentialForward.fog[9].dispatcher droppedJobsSLA 114406
scalar FogSequentialForward.fog[9].dispatcher jobs_class_1 6857277
scalar FogSequentialForward.fog[9].dispatcher remoteJobs_class_1 5234747
scalar FogSequentialForward.fog[9].dispatcher localJobs_class_1 1508124
scalar FogSequentialForward.fog[9].dispatcher droppedJobsSLA_class_1 114406
scalar FogSequentialForward.fog[9].server[0] rho 1
scalar FogSequentialForward.fog[9].server[0] congestionRatio 0
scalar FogSequentialForward.fog[9].server[0] totalJobs 1508124
scalar FogSequentialForward.fog[9].server[0] droppedJobsQueue 79805
scalar FogSequentialForward.fog[9].server[0] droppedJobsTimout 0
scalar FogSequentialForward.fog[9].server[0] droppedJobsSLA 997590
scalar FogSequentialForward.fog[9].server[0] droppedJobsTotal 1077395
scalar FogSequentialForward.fog[10].dispatcher localJobs 1509022
scalar FogSequentialForward.fog[10].dispatcher internalJobs 1623330
scalar FogSequentialForward.fog[10].dispatcher externalJobs 5236379
scalar FogSequentialForward.fog[10].dispatcher remoteJobs 5235873
scalar FogSequentialForward.fog[10].dispatcher probeQueries 0
scalar FogSequentialForward.fog[10].dispatcher probeAnswers 0
scalar FogSequentialForward.fog[10].dispatcher droppedJobsSLA 114814
scalar FogSequentialForward.fog[10].dispatcher jobs_class_1 6859709
scalar FogSequentialForward.fog[10].dispatcher remoteJobs_class_1 5235873
scalar FogSequentialForward.fog[10].dispatcher localJobs_class_1 1509022
scalar FogSequentialForward.fog[10].dispatcher droppedJobsSLA_class_1 114814
scalar FogSequentialForward.fog[10].server[0] rho 1
scalar FogSequentialForward.fog[10].server[0] congestionRatio 0
scalar FogSequentialForward.fog[10].server[0] totalJobs 1509022
scalar FogSequentialForward.fog[10].server[0] droppedJobsQueue 80231
scalar FogSequentialForward.fog[10].server[0] droppedJobsTimout 0
scalar FogSequentialForward.fog[10].server[0] droppedJobsSLA 997278
scalar FogSequentialForward.fog[10].server[0] droppedJobsTotal 1077509
scalar FogSequentialForward.fog[11].dispatcher localJobs 1508410
scalar FogSequentialForward.fog[11].dispatcher internalJobs 1621557
scalar FogSequentialForward.fog[11].dispatcher externalJobs 5232816
scalar FogSequentialForward.fog[11].dispatcher remoteJobs 5231101
scalar FogSequentialForward.fog[11].dispatcher probeQueries 0
scalar FogSequentialForward.fog[11].dispatcher probeAnswers 0
scalar FogSequentialForward.fog[11].dispatcher droppedJobsSLA 114862
scalar FogSequentialForward.fog[11].dispatcher jobs_class_1 6854373
scalar FogSequentialForward.fog[11].dispatcher remoteJobs_class_1 5231101
scalar FogSequentialForward.fog[11].dispatcher localJobs_class_1 1508410
scalar FogSequentialForward.fog[11].dispatcher droppedJobsSLA_class_1 114862
scalar FogSequentialForward.fog[11].server[0] rho 0.99999964237213
scalar FogSequentialForward.fog[11].server[0] congestionRatio 0
scalar FogSequentialForward.fog[11].server[0] totalJobs 1508410
scalar FogSequentialForward.fog[11].server[0] droppedJobsQueue 80311
scalar FogSequentialForward.fog[11].server[0] droppedJobsTimout 0
scalar FogSequentialForward.fog[11].server[0] droppedJobsSLA 996905
scalar FogSequentialForward.fog[11].server[0] droppedJobsTotal 1077216
scalar FogSequentialForward.fog[12].dispatcher localJobs 1509774
scalar FogSequentialForward.fog[12].dispatcher internalJobs 1622661
scalar FogSequentialForward.fog[12].dispatcher externalJobs 5236771
scalar FogSequentialForward.fog[12].dispatcher remoteJobs 5235198
scalar FogSequentialForward.fog[12].dispatcher probeQueries 0
scalar FogSequentialForward.fog[12].dispatcher probeAnswers 0
scalar FogSequentialForward.fog[12].dispatcher droppedJobsSLA 114460
scalar FogSequentialForward.fog[12].dispatcher jobs_class_1 6859432
scalar FogSequentialForward.fog[12].dispatcher remoteJobs_class_1 5235198
scalar FogSequentialForward.fog[12].dispatcher localJobs_class_1 1509774
scalar FogSequentialForward.fog[12].dispatcher droppedJobsSLA_class_1 114460
scalar FogSequentialForward.fog[12].server[0] rho 0.99999964237213
scalar FogSequentialForward.fog[12].server[0] congestionRatio 0
scalar FogSequentialForward.fog[12].server[0] totalJobs 1509774
scalar FogSequentialForward.fog[12].server[0] droppedJobsQueue 80406
scalar FogSequentialForward.fog[12].server[0] droppedJobsTimout 0
scalar FogSequentialForward.fog[12].server[0] droppedJobsSLA 998679
scalar FogSequentialForward.fog[12].server[0] droppedJobsTotal 1079085
scalar FogSequentialForward.fog[13].dispatcher localJobs 1508177
scalar FogSequentialForward.fog[13].dispatcher internalJobs 1624457
scalar FogSequentialForward.fog[13].dispatcher externalJobs 5233061
scalar FogSequentialForward.fog[13].dispatcher remoteJobs 5234902
scalar FogSequentialForward.fog[13].dispatcher probeQueries 0
scalar FogSequentialForward.fog[13].dispatcher probeAnswers 0
scalar FogSequentialForward.fog[13].dispatcher droppedJobsSLA 114439
scalar FogSequentialForward.fog[13].dispatcher jobs_class_1 6857518
scalar FogSequentialForward.fog[13].dispatcher remoteJobs_class_1 5234902
scalar FogSequentialForward.fog[13].dispatcher localJobs_class_1 1508177
scalar FogSequentialForward.fog[13].dispatcher droppedJobsSLA_class_1 114439
scalar FogSequentialForward.fog[13].server[0] rho 1
scalar FogSequentialForward.fog[13].server[0] congestionRatio 0
scalar FogSequentialForward.fog[13].server[0] totalJobs 1508177
scalar FogSequentialForward.fog[13].server[0] droppedJobsQueue 80045
scalar FogSequentialForward.fog[13].server[0] droppedJobsTimout 0
scalar FogSequentialForward.fog[13].server[0] droppedJobsSLA 996946
scalar FogSequentialForward.fog[13].server[0] droppedJobsTotal 1076991
scalar FogSequentialForward.fog[14].dispatcher localJobs 1508530
scalar FogSequentialForward.fog[14].dispatcher internalJobs 1622238
scalar FogSequentialForward.fog[14].dispatcher externalJobs 5238134
scalar FogSequentialForward.fog[14].dispatcher remoteJobs 5237698
scalar FogSequentialForward.fog[14].dispatcher probeQueries 0
scalar FogSequentialForward.fog[14].dispatcher probeAnswers 0
scalar FogSequentialForward.fog[14].dispatcher droppedJobsSLA 114144
scalar FogSequentialForward.fog[14].dispatcher jobs_class_1 6860372
scalar FogSequentialForward.fog[14].dispatcher remoteJobs_class_1 5237698
scalar FogSequentialForward.fog[14].dispatcher localJobs_class_1 1508530
scalar FogSequentialForward.fog[14].dispatcher droppedJobsSLA_class_1 114144
scalar FogSequentialForward.fog[14].server[0] rho 1
scalar FogSequentialForward.fog[14].server[0] congestionRatio 0
scalar FogSequentialForward.fog[14].server[0] totalJobs 1508530
scalar FogSequentialForward.fog[14].server[0] droppedJobsQueue 80501
scalar FogSequentialForward.fog[14].server[0] droppedJobsTimout 0
scalar FogSequentialForward.fog[14].server[0] droppedJobsSLA 996941
scalar FogSequentialForward.fog[14].server[0] droppedJobsTotal 1077442
scalar FogSequentialForward.fog[15].dispatcher localJobs 1508067
scalar FogSequentialForward.fog[15].dispatcher internalJobs 1624984
scalar FogSequentialForward.fog[15].dispatcher externalJobs 5234842
scalar FogSequentialForward.fog[15].dispatcher remoteJobs 5236853
scalar FogSequentialForward.fog[15].dispatcher probeQueries 0
scalar FogSequentialForward.fog[15].dispatcher probeAnswers 0
scalar FogSequentialForward.fog[15].dispatcher droppedJobsSLA 114906
scalar FogSequentialForward.fog[15].dispatcher jobs_class_1 6859826
scalar FogSequentialForward.fog[15].dispatcher remoteJobs_class_1 5236853
scalar FogSequentialForward.fog[15].dispatcher localJobs_class_1 1508067
scalar FogSequentialForward.fog[15].dispatcher droppedJobsSLA_class_1 114906
scalar FogSequentialForward.fog[15].server[0] rho 1
scalar FogSequentialForward.fog[15].server[0] congestionRatio 0
scalar FogSequentialForward.fog[15].server[0] totalJobs 1508067
scalar FogSequentialForward.fog[15].server[0] droppedJobsQueue 80050
scalar FogSequentialForward.fog[15].server[0] droppedJobsTimout 0
scalar FogSequentialForward.fog[15].server[0] droppedJobsSLA 997340
scalar FogSequentialForward.fog[15].server[0] droppedJobsTotal 1077390
scalar FogSequentialForward.fog[16].dispatcher localJobs 1509099
scalar FogSequentialForward.fog[16].dispatcher internalJobs 1623953
scalar FogSequentialForward.fog[16].dispatcher externalJobs 5236205
scalar FogSequentialForward.fog[16].dispatcher remoteJobs 5236288
scalar FogSequentialForward.fog[16].dispatcher probeQueries 0
scalar FogSequentialForward.fog[16].dispatcher probeAnswers 0
scalar FogSequentialForward.fog[16].dispatcher droppedJobsSLA 114771
scalar FogSequentialForward.fog[16].dispatcher jobs_class_1 6860158
scalar FogSequentialForward.fog[16].dispatcher remoteJobs_class_1 5236288
scalar FogSequentialForward.fog[16].dispatcher localJobs_class_1 1509099
scalar FogSequentialForward.fog[16].dispatcher droppedJobsSLA_class_1 114771
scalar FogSequentialForward.fog[16].server[0] rho 1
scalar FogSequentialForward.fog[16].server[0] congestionRatio 0
scalar FogSequentialForward.fog[16].server[0] totalJobs 1509099
scalar FogSequentialForward.fog[16].server[0] droppedJobsQueue 80340
scalar FogSequentialForward.fog[16].server[0] droppedJobsTimout 0
scalar FogSequentialForward.fog[16].server[0] droppedJobsSLA 997547
scalar FogSequentialForward.fog[16].server[0] droppedJobsTotal 1077887
scalar FogSequentialForward.fog[17].dispatcher localJobs 1507876
scalar FogSequentialForward.fog[17].dispatcher internalJobs 1621444
scalar FogSequentialForward.fog[17].dispatcher externalJobs 5233431
scalar FogSequentialForward.fog[17].dispatcher remoteJobs 5232741
scalar FogSequentialForward.fog[17].dispatcher probeQueries 0
scalar FogSequentialForward.fog[17].dispatcher probeAnswers 0
scalar FogSequentialForward.fog[17].dispatcher droppedJobsSLA 114258
scalar FogSequentialForward.fog[17].dispatcher jobs_class_1 6854875
scalar FogSequentialForward.fog[17].dispatcher remoteJobs_class_1 5232741
scalar FogSequentialForward.fog[17].dispatcher localJobs_class_1 1507876
scalar FogSequentialForward.fog[17].dispatcher droppedJobsSLA_class_1 114258
scalar FogSequentialForward.fog[17].server[0] rho 1
scalar FogSequentialForward.fog[17].server[0] congestionRatio 0
scalar FogSequentialForward.fog[17].server[0] totalJobs 1507876
scalar FogSequentialForward.fog[17].server[0] droppedJobsQueue 79761
scalar FogSequentialForward.fog[17].server[0] droppedJobsTimout 0
scalar FogSequentialForward.fog[17].server[0] droppedJobsSLA 997244
scalar FogSequentialForward.fog[17].server[0] droppedJobsTotal 1077005
scalar FogSequentialForward.fog[18].dispatcher localJobs 1507955
scalar FogSequentialForward.fog[18].dispatcher internalJobs 1624299
scalar FogSequentialForward.fog[18].dispatcher externalJobs 5234768
scalar FogSequentialForward.fog[18].dispatcher remoteJobs 5236686
scalar FogSequentialForward.fog[18].dispatcher probeQueries 0
scalar FogSequentialForward.fog[18].dispatcher probeAnswers 0
scalar FogSequentialForward.fog[18].dispatcher droppedJobsSLA 114426
scalar FogSequentialForward.fog[18].dispatcher jobs_class_1 6859067
scalar FogSequentialForward.fog[18].dispatcher remoteJobs_class_1 5236686
scalar FogSequentialForward.fog[18].dispatcher localJobs_class_1 1507955
scalar FogSequentialForward.fog[18].dispatcher droppedJobsSLA_class_1 114426
scalar FogSequentialForward.fog[18].server[0] rho 1
scalar FogSequentialForward.fog[18].server[0] congestionRatio 0
scalar FogSequentialForward.fog[18].server[0] totalJobs 1507955
scalar FogSequentialForward.fog[18].server[0] droppedJobsQueue 80023
scalar FogSequentialForward.fog[18].server[0] droppedJobsTimout 0
scalar FogSequentialForward.fog[18].server[0] droppedJobsSLA 997365
scalar FogSequentialForward.fog[18].server[0] droppedJobsTotal 1077388
scalar FogSequentialForward.fog[19].dispatcher localJobs 1508039
scalar FogSequentialForward.fog[19].dispatcher internalJobs 1624497
scalar FogSequentialForward.fog[19].dispatcher externalJobs 5237238
scalar FogSequentialForward.fog[19].dispatcher remoteJobs 5238789
scalar FogSequentialForward.fog[19].dispatcher probeQueries 0
scalar FogSequentialForward.fog[19].dispatcher probeAnswers 0
scalar FogSequentialForward.fog[19].dispatcher droppedJobsSLA 114907
scalar FogSequentialForward.fog[19].dispatcher jobs_class_1 6861735
scalar FogSequentialForward.fog[19].dispatcher remoteJobs_class_1 5238789
scalar FogSequentialForward.fog[19].dispatcher localJobs_class_1 1508039
scalar FogSequentialForward.fog[19].dispatcher droppedJobsSLA_class_1 114907
scalar FogSequentialForward.fog[19].server[0] rho 1
scalar FogSequentialForward.fog[19].server[0] congestionRatio 0
scalar FogSequentialForward.fog[19].server[0] totalJobs 1508039
scalar FogSequentialForward.fog[19].server[0] droppedJobsQueue 80081
scalar FogSequentialForward.fog[19].server[0] droppedJobsTimout 0
scalar FogSequentialForward.fog[19].server[0] droppedJobsSLA 997413
scalar FogSequentialForward.fog[19].server[0] droppedJobsTotal 1077494
scalar FogSequentialForward.fog[20].dispatcher localJobs 1508253
scalar FogSequentialForward.fog[20].dispatcher internalJobs 1621369
scalar FogSequentialForward.fog[20].dispatcher externalJobs 5235193
scalar FogSequentialForward.fog[20].dispatcher remoteJobs 5233384
scalar FogSequentialForward.fog[20].dispatcher probeQueries 0
scalar FogSequentialForward.fog[20].dispatcher probeAnswers 0
scalar FogSequentialForward.fog[20].dispatcher droppedJobsSLA 114925
scalar FogSequentialForward.fog[20].dispatcher jobs_class_1 6856562
scalar FogSequentialForward.fog[20].dispatcher remoteJobs_class_1 5233384
scalar FogSequentialForward.fog[20].dispatcher localJobs_class_1 1508253
scalar FogSequentialForward.fog[20].dispatcher droppedJobsSLA_class_1 114925
scalar FogSequentialForward.fog[20].server[0] rho 1
scalar FogSequentialForward.fog[20].server[0] congestionRatio 0
scalar FogSequentialForward.fog[20].server[0] totalJobs 1508253
scalar FogSequentialForward.fog[20].server[0] droppedJobsQueue 80126
scalar FogSequentialForward.fog[20].server[0] droppedJobsTimout 0
scalar FogSequentialForward.fog[20].server[0] droppedJobsSLA 997764
scalar FogSequentialForward.fog[20].server[0] droppedJobsTotal 1077890
scalar FogSequentialForward.fog[21].dispatcher localJobs 1509213
scalar FogSequentialForward.fog[21].dispatcher internalJobs 1623422
scalar FogSequentialForward.fog[21].dispatcher externalJobs 5235190
scalar FogSequentialForward.fog[21].dispatcher remoteJobs 5234675
scalar FogSequentialForward.fog[21].dispatcher probeQueries 0
scalar FogSequentialForward.fog[21].dispatcher probeAnswers 0
scalar FogSequentialForward.fog[21].dispatcher droppedJobsSLA 114724
scalar FogSequentialForward.fog[21].dispatcher jobs_class_1 6858612
scalar FogSequentialForward.fog[21].dispatcher remoteJobs_class_1 5234675
scalar FogSequentialForward.fog[21].dispatcher localJobs_class_1 1509213
scalar FogSequentialForward.fog[21].dispatcher droppedJobsSLA_class_1 114724
scalar FogSequentialForward.fog[21].server[0] rho 1
scalar FogSequentialForward.fog[21].server[0] congestionRatio 0
scalar FogSequentialForward.fog[21].server[0] totalJobs 1509213
scalar FogSequentialForward.fog[21].server[0] droppedJobsQueue 80399
scalar FogSequentialForward.fog[21].server[0] droppedJobsTimout 0
scalar FogSequentialForward.fog[21].server[0] droppedJobsSLA 998369
scalar FogSequentialForward.fog[21].server[0] droppedJobsTotal 1078768
scalar FogSequentialForward.fog[22].dispatcher localJobs 1508571
scalar FogSequentialForward.fog[22].dispatcher internalJobs 1620934
scalar FogSequentialForward.fog[22].dispatcher externalJobs 5234100
scalar FogSequentialForward.fog[22].dispatcher remoteJobs 5231759
scalar FogSequentialForward.fog[22].dispatcher probeQueries 0
scalar FogSequentialForward.fog[22].dispatcher probeAnswers 0
scalar FogSequentialForward.fog[22].dispatcher droppedJobsSLA 114704
scalar FogSequentialForward.fog[22].dispatcher jobs_class_1 6855034
scalar FogSequentialForward.fog[22].dispatcher remoteJobs_class_1 5231759
scalar FogSequentialForward.fog[22].dispatcher localJobs_class_1 1508571
scalar FogSequentialForward.fog[22].dispatcher droppedJobsSLA_class_1 114704
scalar FogSequentialForward.fog[22].server[0] rho 1
scalar FogSequentialForward.fog[22].server[0] congestionRatio 0
scalar FogSequentialForward.fog[22].server[0] totalJobs 1508571
scalar FogSequentialForward.fog[22].server[0] droppedJobsQueue 79920
scalar FogSequentialForward.fog[22].server[0] droppedJobsTimout 0
scalar FogSequentialForward.fog[22].server[0] droppedJobsSLA 997031
scalar FogSequentialForward.fog[22].server[0] droppedJobsTotal 1076951
scalar FogSequentialForward.fog[23].dispatcher localJobs 1508425
scalar FogSequentialForward.fog[23].dispatcher internalJobs 1624337
scalar FogSequentialForward.fog[23].dispatcher externalJobs 5234050
scalar FogSequentialForward.fog[23].dispatcher remoteJobs 5235523
scalar FogSequentialForward.fog[23].dispatcher probeQueries 0
scalar FogSequentialForward.fog[23].dispatcher probeAnswers 0
scalar FogSequentialForward.fog[23].dispatcher droppedJobsSLA 114439
scalar FogSequentialForward.fog[23].dispatcher jobs_class_1 6858387
scalar FogSequentialForward.fog[23].dispatcher remoteJobs_class_1 5235523
scalar FogSequentialForward.fog[23].dispatcher localJobs_class_1 1508425
scalar FogSequentialForward.fog[23].dispatcher droppedJobsSLA_class_1 114439
scalar FogSequentialForward.fog[23].server[0] rho 1
scalar FogSequentialForward.fog[23].server[0] congestionRatio 0
scalar FogSequentialForward.fog[23].server[0] totalJobs 1508425
scalar FogSequentialForward.fog[23].server[0] droppedJobsQueue 80269
scalar FogSequentialForward.fog[23].server[0] droppedJobsTimout 0
scalar FogSequentialForward.fog[23].server[0] droppedJobsSLA 997417
scalar FogSequentialForward.fog[23].server[0] droppedJobsTotal 1077686
scalar FogSequentialForward.fog[24].dispatcher localJobs 1508564
scalar FogSequentialForward.fog[24].dispatcher internalJobs 1623142
scalar FogSequentialForward.fog[24].dispatcher externalJobs 5232934
scalar FogSequentialForward.fog[24].dispatcher remoteJobs 5232856
scalar FogSequentialForward.fog[24].dispatcher probeQueries 0
scalar FogSequentialForward.fog[24].dispatcher probeAnswers 0
scalar FogSequentialForward.fog[24].dispatcher droppedJobsSLA 114656
scalar FogSequentialForward.fog[24].dispatcher jobs_class_1 6856076
scalar FogSequentialForward.fog[24].dispatcher remoteJobs_class_1 5232856
scalar FogSequentialForward.fog[24].dispatcher localJobs_class_1 1508564
scalar FogSequentialForward.fog[24].dispatcher droppedJobsSLA_class_1 114656
scalar FogSequentialForward.fog[24].server[0] rho 1
scalar FogSequentialForward.fog[24].server[0] congestionRatio 0
scalar FogSequentialForward.fog[24].server[0] totalJobs 1508564
scalar FogSequentialForward.fog[24].server[0] droppedJobsQueue 80264
scalar FogSequentialForward.fog[24].server[0] droppedJobsTimout 0
scalar FogSequentialForward.fog[24].server[0] droppedJobsSLA 997939
scalar FogSequentialForward.fog[24].server[0] droppedJobsTotal 1078203
scalar FogSequentialForward.fog[25].dispatcher localJobs 1508057
scalar FogSequentialForward.fog[25].dispatcher internalJobs 1622647
scalar FogSequentialForward.fog[25].dispatcher externalJobs 5233223
scalar FogSequentialForward.fog[25].dispatcher remoteJobs 5232966
scalar FogSequentialForward.fog[25].dispatcher probeQueries 0
scalar FogSequentialForward.fog[25].dispatcher probeAnswers 0
scalar FogSequentialForward.fog[25].dispatcher droppedJobsSLA 114847
scalar FogSequentialForward.fog[25].dispatcher jobs_class_1 6855870
scalar FogSequentialForward.fog[25].dispatcher remoteJobs_class_1 5232966
scalar FogSequentialForward.fog[25].dispatcher localJobs_class_1 1508057
scalar FogSequentialForward.fog[25].dispatcher droppedJobsSLA_class_1 114847
scalar FogSequentialForward.fog[25].server[0] rho 1
scalar FogSequentialForward.fog[25].server[0] congestionRatio 0
scalar FogSequentialForward.fog[25].server[0] totalJobs 1508057
scalar FogSequentialForward.fog[25].server[0] droppedJobsQueue 80034
scalar FogSequentialForward.fog[25].server[0] droppedJobsTimout 0
scalar FogSequentialForward.fog[25].server[0] droppedJobsSLA 997175
scalar FogSequentialForward.fog[25].server[0] droppedJobsTotal 1077209
scalar FogSequentialForward.fog[26].dispatcher localJobs 1508654
scalar FogSequentialForward.fog[26].dispatcher internalJobs 1624251
scalar FogSequentialForward.fog[26].dispatcher externalJobs 5235285
scalar FogSequentialForward.fog[26].dispatcher remoteJobs 5236643
scalar FogSequentialForward.fog[26].dispatcher probeQueries 0
scalar FogSequentialForward.fog[26].dispatcher probeAnswers 0
scalar FogSequentialForward.fog[26].dispatcher droppedJobsSLA 114239
scalar FogSequentialForward.fog[26].dispatcher jobs_class_1 6859536
scalar FogSequentialForward.fog[26].dispatcher remoteJobs_class_1 5236643
scalar FogSequentialForward.fog[26].dispatcher localJobs_class_1 1508654
scalar FogSequentialForward.fog[26].dispatcher droppedJobsSLA_class_1 114239
scalar FogSequentialForward.fog[26].server[0] rho 1
scalar FogSequentialForward.fog[26].server[0] congestionRatio 0
scalar FogSequentialForward.fog[26].server[0] totalJobs 1508654
scalar FogSequentialForward.fog[26].server[0] droppedJobsQueue 80364
scalar FogSequentialForward.fog[26].server[0] droppedJobsTimout 0
scalar FogSequentialForward.fog[26].server[0] droppedJobsSLA 997327
scalar FogSequentialForward.fog[26].server[0] droppedJobsTotal 1077691
scalar FogSequentialForward.fog[27].dispatcher localJobs 1507640
scalar FogSequentialForward.fog[27].dispatcher internalJobs 1622832
scalar FogSequentialForward.fog[27].dispatcher externalJobs 5232067
scalar FogSequentialForward.fog[27].dispatcher remoteJobs 5232908
scalar FogSequentialForward.fog[27].dispatcher probeQueries 0
scalar FogSequentialForward.fog[27].dispatcher probeAnswers 0
scalar FogSequentialForward.fog[27].dispatcher droppedJobsSLA 114351
scalar FogSequentialForward.fog[27].dispatcher jobs_class_1 6854899
scalar FogSequentialForward.fog[27].dispatcher remoteJobs_class_1 5232908
scalar FogSequentialForward.fog[27].dispatcher localJobs_class_1 1507640
scalar FogSequentialForward.fog[27].dispatcher droppedJobsSLA_class_1 114351
scalar FogSequentialForward.fog[27].server[0] rho 1
scalar FogSequentialForward.fog[27].server[0] congestionRatio 0
scalar FogSequentialForward.fog[27].server[0] totalJobs 1507640
scalar FogSequentialForward.fog[27].server[0] droppedJobsQueue 79835
scalar FogSequentialForward.fog[27].server[0] droppedJobsTimout 0
scalar FogSequentialForward.fog[27].server[0] droppedJobsSLA 996984
scalar FogSequentialForward.fog[27].server[0] droppedJobsTotal 1076819
scalar FogSequentialForward.fog[28].dispatcher localJobs 1508339
scalar FogSequentialForward.fog[28].dispatcher internalJobs 1622238
scalar FogSequentialForward.fog[28].dispatcher externalJobs 5233935
scalar FogSequentialForward.fog[28].dispatcher remoteJobs 5233102
scalar FogSequentialForward.fog[28].dispatcher probeQueries 0
scalar FogSequentialForward.fog[28].dispatcher probeAnswers 0
scalar FogSequentialForward.fog[28].dispatcher droppedJobsSLA 114732
scalar FogSequentialForward.fog[28].dispatcher jobs_class_1 6856173
scalar FogSequentialForward.fog[28].dispatcher remoteJobs_class_1 5233102
scalar FogSequentialForward.fog[28].dispatcher localJobs_class_1 1508339
scalar FogSequentialForward.fog[28].dispatcher droppedJobsSLA_class_1 114732
scalar FogSequentialForward.fog[28].server[0] rho 1
scalar FogSequentialForward.fog[28].server[0] congestionRatio 0
scalar FogSequentialForward.fog[28].server[0] totalJobs 1508339
scalar FogSequentialForward.fog[28].server[0] droppedJobsQueue 80181
scalar FogSequentialForward.fog[28].server[0] droppedJobsTimout 0
scalar FogSequentialForward.fog[28].server[0] droppedJobsSLA 997277
scalar FogSequentialForward.fog[28].server[0] droppedJobsTotal 1077458
scalar FogSequentialForward.fog[29].dispatcher localJobs 1508567
scalar FogSequentialForward.fog[29].dispatcher internalJobs 1623904
scalar FogSequentialForward.fog[29].dispatcher externalJobs 5233204
scalar FogSequentialForward.fog[29].dispatcher remoteJobs 5234103
scalar FogSequentialForward.fog[29].dispatcher probeQueries 0
scalar FogSequentialForward.fog[29].dispatcher probeAnswers 0
scalar FogSequentialForward.fog[29].dispatcher droppedJobsSLA 114438
scalar FogSequentialForward.fog[29].dispatcher jobs_class_1 6857108
scalar FogSequentialForward.fog[29].dispatcher remoteJobs_class_1 5234103
scalar FogSequentialForward.fog[29].dispatcher localJobs_class_1 1508567
scalar FogSequentialForward.fog[29].dispatcher droppedJobsSLA_class_1 114438
scalar FogSequentialForward.fog[29].server[0] rho 1
scalar FogSequentialForward.fog[29].server[0] congestionRatio 0
scalar FogSequentialForward.fog[29].server[0] totalJobs 1508567
scalar FogSequentialForward.fog[29].server[0] droppedJobsQueue 80177
scalar FogSequentialForward.fog[29].server[0] droppedJobsTimout 0
scalar FogSequentialForward.fog[29].server[0] droppedJobsSLA 997669
scalar FogSequentialForward.fog[29].server[0] droppedJobsTotal 1077846
scalar FogSequentialForward.fog[30].dispatcher localJobs 1508042
scalar FogSequentialForward.fog[30].dispatcher internalJobs 1622259
scalar FogSequentialForward.fog[30].dispatcher externalJobs 5229625
scalar FogSequentialForward.fog[30].dispatcher remoteJobs 5229347
scalar FogSequentialForward.fog[30].dispatcher probeQueries 0
scalar FogSequentialForward.fog[30].dispatcher probeAnswers 0
scalar FogSequentialForward.fog[30].dispatcher droppedJobsSLA 114495
scalar FogSequentialForward.fog[30].dispatcher jobs_class_1 6851884
scalar FogSequentialForward.fog[30].dispatcher remoteJobs_class_1 5229347
scalar FogSequentialForward.fog[30].dispatcher localJobs_class_1 1508042
scalar FogSequentialForward.fog[30].dispatcher droppedJobsSLA_class_1 114495
scalar FogSequentialForward.fog[30].server[0] rho 1
scalar FogSequentialForward.fog[30].server[0] congestionRatio 0
scalar FogSequentialForward.fog[30].server[0] totalJobs 1508042
scalar FogSequentialForward.fog[30].server[0] droppedJobsQueue 80353
scalar FogSequentialForward.fog[30].server[0] droppedJobsTimout 0
scalar FogSequentialForward.fog[30].server[0] droppedJobsSLA 996033
scalar FogSequentialForward.fog[30].server[0] droppedJobsTotal 1076386
scalar FogSequentialForward.fog[31].dispatcher localJobs 1508032
scalar FogSequentialForward.fog[31].dispatcher internalJobs 1623271
scalar FogSequentialForward.fog[31].dispatcher externalJobs 5233532
scalar FogSequentialForward.fog[31].dispatcher remoteJobs 5234201
scalar FogSequentialForward.fog[31].dispatcher probeQueries 0
scalar FogSequentialForward.fog[31].dispatcher probeAnswers 0
scalar FogSequentialForward.fog[31].dispatcher droppedJobsSLA 114570
scalar FogSequentialForward.fog[31].dispatcher jobs_class_1 6856803
scalar FogSequentialForward.fog[31].dispatcher remoteJobs_class_1 5234201
scalar FogSequentialForward.fog[31].dispatcher localJobs_class_1 1508032
scalar FogSequentialForward.fog[31].dispatcher droppedJobsSLA_class_1 114570
scalar FogSequentialForward.fog[31].server[0] rho 1
scalar FogSequentialForward.fog[31].server[0] congestionRatio 0
scalar FogSequentialForward.fog[31].server[0] totalJobs 1508032
scalar FogSequentialForward.fog[31].server[0] droppedJobsQueue 80027
scalar FogSequentialForward.fog[31].server[0] droppedJobsTimout 0
scalar FogSequentialForward.fog[31].server[0] droppedJobsSLA 997441
scalar FogSequentialForward.fog[31].server[0] droppedJobsTotal 1077468
scalar FogSequentialForward.fog[32].dispatcher localJobs 1508183
scalar FogSequentialForward.fog[32].dispatcher internalJobs 1623162
scalar FogSequentialForward.fog[32].dispatcher externalJobs 5234882
scalar FogSequentialForward.fog[32].dispatcher remoteJobs 5234810
scalar FogSequentialForward.fog[32].dispatcher probeQueries 0
scalar FogSequentialForward.fog[32].dispatcher probeAnswers 0
scalar FogSequentialForward.fog[32].dispatcher droppedJobsSLA 115051
scalar FogSequentialForward.fog[32].dispatcher jobs_class_1 6858044
scalar FogSequentialForward.fog[32].dispatcher remoteJobs_class_1 5234810
scalar FogSequentialForward.fog[32].dispatcher localJobs_class_1 1508183
scalar FogSequentialForward.fog[32].dispatcher droppedJobsSLA_class_1 115051
scalar FogSequentialForward.fog[32].server[0] rho 1
scalar FogSequentialForward.fog[32].server[0] congestionRatio 0
scalar FogSequentialForward.fog[32].server[0] totalJobs 1508183
scalar FogSequentialForward.fog[32].server[0] droppedJobsQueue 80014
scalar FogSequentialForward.fog[32].server[0] droppedJobsTimout 0
scalar FogSequentialForward.fog[32].server[0] droppedJobsSLA 997255
scalar FogSequentialForward.fog[32].server[0] droppedJobsTotal 1077269
scalar FogSequentialForward.fog[33].dispatcher localJobs 1508138
scalar FogSequentialForward.fog[33].dispatcher internalJobs 1624302
scalar FogSequentialForward.fog[33].dispatcher externalJobs 5233762
scalar FogSequentialForward.fog[33].dispatcher remoteJobs 5234955
scalar FogSequentialForward.fog[33].dispatcher probeQueries 0
scalar FogSequentialForward.fog[33].dispatcher probeAnswers 0
scalar FogSequentialForward.fog[33].dispatcher droppedJobsSLA 114971
scalar FogSequentialForward.fog[33].dispatcher jobs_class_1 6858064
scalar FogSequentialForward.fog[33].dispatcher remoteJobs_class_1 5234955
scalar FogSequentialForward.fog[33].dispatcher localJobs_class_1 1508138
scalar FogSequentialForward.fog[33].dispatcher droppedJobsSLA_class_1 114971
scalar FogSequentialForward.fog[33].server[0] rho 1
scalar FogSequentialForward.fog[33].server[0] congestionRatio 0
scalar FogSequentialForward.fog[33].server[0] totalJobs 1508138
scalar FogSequentialForward.fog[33].server[0] droppedJobsQueue 80061
scalar FogSequentialForward.fog[33].server[0] droppedJobsTimout 0
scalar FogSequentialForward.fog[33].server[0] droppedJobsSLA 997250
scalar FogSequentialForward.fog[33].server[0] droppedJobsTotal 1077311
scalar FogSequentialForward.fog[34].dispatcher localJobs 1508541
scalar FogSequentialForward.fog[34].dispatcher internalJobs 1624237
scalar FogSequentialForward.fog[34].dispatcher externalJobs 5236709
scalar FogSequentialForward.fog[34].dispatcher remoteJobs 5237835
scalar FogSequentialForward.fog[34].dispatcher probeQueries 0
scalar FogSequentialForward.fog[34].dispatcher probeAnswers 0
scalar FogSequentialForward.fog[34].dispatcher droppedJobsSLA 114570
scalar FogSequentialForward.fog[34].dispatcher jobs_class_1 6860946
scalar FogSequentialForward.fog[34].dispatcher remoteJobs_class_1 5237835
scalar FogSequentialForward.fog[34].dispatcher localJobs_class_1 1508541
scalar FogSequentialForward.fog[34].dispatcher droppedJobsSLA_class_1 114570
scalar FogSequentialForward.fog[34].server[0] rho 0.9999988079071
scalar FogSequentialForward.fog[34].server[0] congestionRatio 0
scalar FogSequentialForward.fog[34].server[0] totalJobs 1508541
scalar FogSequentialForward.fog[34].server[0] droppedJobsQueue 80094
scalar FogSequentialForward.fog[34].server[0] droppedJobsTimout 0
scalar FogSequentialForward.fog[34].server[0] droppedJobsSLA 997365
scalar FogSequentialForward.fog[34].server[0] droppedJobsTotal 1077459
scalar FogSequentialForward.fog[35].dispatcher localJobs 1509038
scalar FogSequentialForward.fog[35].dispatcher internalJobs 1623848
scalar FogSequentialForward.fog[35].dispatcher externalJobs 5237759
scalar FogSequentialForward.fog[35].dispatcher remoteJobs 5238002
scalar FogSequentialForward.fog[35].dispatcher probeQueries 0
scalar FogSequentialForward.fog[35].dispatcher probeAnswers 0
scalar FogSequentialForward.fog[35].dispatcher droppedJobsSLA 114567
scalar FogSequentialForward.fog[35].dispatcher jobs_class_1 6861607
scalar FogSequentialForward.fog[35].dispatcher remoteJobs_class_1 5238002
scalar FogSequentialForward.fog[35].dispatcher localJobs_class_1 1509038
scalar FogSequentialForward.fog[35].dispatcher droppedJobsSLA_class_1 114567
scalar FogSequentialForward.fog[35].server[0] rho 1
scalar FogSequentialForward.fog[35].server[0] congestionRatio 0
scalar FogSequentialForward.fog[35].server[0] totalJobs 1509038
scalar FogSequentialForward.fog[35].server[0] droppedJobsQueue 80534
scalar FogSequentialForward.fog[35].server[0] droppedJobsTimout 0
scalar FogSequentialForward.fog[35].server[0] droppedJobsSLA 997411
scalar FogSequentialForward.fog[35].server[0] droppedJobsTotal 1077945
scalar FogSequentialForward.fog[36].dispatcher localJobs 1508611
scalar FogSequentialForward.fog[36].dispatcher internalJobs 1621507
scalar FogSequentialForward.fog[36].dispatcher externalJobs 5233090
scalar FogSequentialForward.fog[36].dispatcher remoteJobs 5231561
scalar FogSequentialForward.fog[36].dispatcher probeQueries 0
scalar FogSequentialForward.fog[36].dispatcher probeAnswers 0
scalar FogSequentialForward.fog[36].dispatcher droppedJobsSLA 114425
scalar FogSequentialForward.fog[36].dispatcher jobs_class_1 6854597
scalar FogSequentialForward.fog[36].dispatcher remoteJobs_class_1 5231561
scalar FogSequentialForward.fog[36].dispatcher localJobs_class_1 1508611
scalar FogSequentialForward.fog[36].dispatcher droppedJobsSLA_class_1 114425
scalar FogSequentialForward.fog[36].server[0] rho 1
scalar FogSequentialForward.fog[36].server[0] congestionRatio 0
scalar FogSequentialForward.fog[36].server[0] totalJobs 1508611
scalar FogSequentialForward.fog[36].server[0] droppedJobsQueue 80133
scalar FogSequentialForward.fog[36].server[0] droppedJobsTimout 0
scalar FogSequentialForward.fog[36].server[0] droppedJobsSLA 997265
scalar FogSequentialForward.fog[36].server[0] droppedJobsTotal 1077398
scalar FogSequentialForward.fog[37].dispatcher localJobs 1508363
scalar FogSequentialForward.fog[37].dispatcher internalJobs 1624499
scalar FogSequentialForward.fog[37].dispatcher externalJobs 5233853
scalar FogSequentialForward.fog[37].dispatcher remoteJobs 5235816
scalar FogSequentialForward.fog[37].dispatcher probeQueries 0
scalar FogSequentialForward.fog[37].dispatcher probeAnswers 0
scalar FogSequentialForward.fog[37].dispatcher droppedJobsSLA 114173
scalar FogSequentialForward.fog[37].dispatcher jobs_class_1 6858352
scalar FogSequentialForward.fog[37].dispatcher remoteJobs_class_1 5235816
scalar FogSequentialForward.fog[37].dispatcher localJobs_class_1 1508363
scalar FogSequentialForward.fog[37].dispatcher droppedJobsSLA_class_1 114173
scalar FogSequentialForward.fog[37].server[0] rho 1
scalar FogSequentialForward.fog[37].server[0] congestionRatio 0
scalar FogSequentialForward.fog[37].server[0] totalJobs 1508363
scalar FogSequentialForward.fog[37].server[0] droppedJobsQueue 80384
scalar FogSequentialForward.fog[37].server[0] droppedJobsTimout 0
scalar FogSequentialForward.fog[37].server[0] droppedJobsSLA 996925
scalar FogSequentialForward.fog[37].server[0] droppedJobsTotal 1077309
scalar FogSequentialForward.fog[38].dispatcher localJobs 1509397
scalar FogSequentialForward.fog[38].dispatcher internalJobs 1620417
scalar FogSequentialForward.fog[38].dispatcher externalJobs 5236614
scalar FogSequentialForward.fog[38].dispatcher remoteJobs 5233868
scalar FogSequentialForward.fog[38].dispatcher probeQueries 0
scalar FogSequentialForward.fog[38].dispatcher probeAnswers 0
scalar FogSequentialForward.fog[38].dispatcher droppedJobsSLA 113766
scalar FogSequentialForward.fog[38].dispatcher jobs_class_1 6857031
scalar FogSequentialForward.fog[38].dispatcher remoteJobs_class_1 5233868
scalar FogSequentialForward.fog[38].dispatcher localJobs_class_1 1509397
scalar FogSequentialForward.fog[38].dispatcher droppedJobsSLA_class_1 113766
scalar FogSequentialForward.fog[38].server[0] rho 1
scalar FogSequentialForward.fog[38].server[0] congestionRatio 0
scalar FogSequentialForward.fog[38].server[0] totalJobs 1509397
scalar FogSequentialForward.fog[38].server[0] droppedJobsQueue 80214
scalar FogSequentialForward.fog[38].server[0] droppedJobsTimout 0
scalar FogSequentialForward.fog[38].server[0] droppedJobsSLA 998284
scalar FogSequentialForward.fog[38].server[0] droppedJobsTotal 1078498
scalar FogSequentialForward.fog[39].dispatcher localJobs 1508294
scalar FogSequentialForward.fog[39].dispatcher internalJobs 1622379
scalar FogSequentialForward.fog[39].dispatcher externalJobs 5234032
scalar FogSequentialForward.fog[39].dispatcher remoteJobs 5233439
scalar FogSequentialForward.fog[39].dispatcher probeQueries 0
scalar FogSequentialForward.fog[39].dispatcher probeAnswers 0
scalar FogSequentialForward.fog[39].dispatcher droppedJobsSLA 114678
scalar FogSequentialForward.fog[39].dispatcher jobs_class_1 6856411
scalar FogSequentialForward.fog[39].dispatcher remoteJobs_class_1 5233439
scalar FogSequentialForward.fog[39].dispatcher localJobs_class_1 1508294
scalar FogSequentialForward.fog[39].dispatcher droppedJobsSLA_class_1 114678
scalar FogSequentialForward.fog[39].server[0] rho 1
scalar FogSequentialForward.fog[39].server[0] congestionRatio 0
scalar FogSequentialForward.fog[39].server[0] totalJobs 1508294
scalar FogSequentialForward.fog[39].server[0] droppedJobsQueue 80047
scalar FogSequentialForward.fog[39].server[0] droppedJobsTimout 0
scalar FogSequentialForward.fog[39].server[0] droppedJobsSLA 997744
scalar FogSequentialForward.fog[39].server[0] droppedJobsTotal 1077791
scalar FogSequentialForward.fog[40].dispatcher localJobs 1507658
scalar FogSequentialForward.fog[40].dispatcher internalJobs 1621619
scalar FogSequentialForward.fog[40].dispatcher externalJobs 5236975
scalar FogSequentialForward.fog[40].dispatcher remoteJobs 5236713
scalar FogSequentialForward.fog[40].dispatcher probeQueries 0
scalar FogSequentialForward.fog[40].dispatcher probeAnswers 0
scalar FogSequentialForward.fog[40].dispatcher droppedJobsSLA 114223
scalar FogSequentialForward.fog[40].dispatcher jobs_class_1 6858594
scalar FogSequentialForward.fog[40].dispatcher remoteJobs_class_1 5236713
scalar FogSequentialForward.fog[40].dispatcher localJobs_class_1 1507658
scalar FogSequentialForward.fog[40].dispatcher droppedJobsSLA_class_1 114223
scalar FogSequentialForward.fog[40].server[0] rho 1
scalar FogSequentialForward.fog[40].server[0] congestionRatio 0
scalar FogSequentialForward.fog[40].server[0] totalJobs 1507658
scalar FogSequentialForward.fog[40].server[0] droppedJobsQueue 80069
scalar FogSequentialForward.fog[40].server[0] droppedJobsTimout 0
scalar FogSequentialForward.fog[40].server[0] droppedJobsSLA 996600
scalar FogSequentialForward.fog[40].server[0] droppedJobsTotal 1076669
scalar FogSequentialForward.fog[41].dispatcher localJobs 1508533
scalar FogSequentialForward.fog[41].dispatcher internalJobs 1622765
scalar FogSequentialForward.fog[41].dispatcher externalJobs 5234570
scalar FogSequentialForward.fog[41].dispatcher remoteJobs 5233895
scalar FogSequentialForward.fog[41].dispatcher probeQueries 0
scalar FogSequentialForward.fog[41].dispatcher probeAnswers 0
scalar FogSequentialForward.fog[41].dispatcher droppedJobsSLA 114907
scalar FogSequentialForward.fog[41].dispatcher jobs_class_1 6857335
scalar FogSequentialForward.fog[41].dispatcher remoteJobs_class_1 5233895
scalar FogSequentialForward.fog[41].dispatcher localJobs_class_1 1508533
scalar FogSequentialForward.fog[41].dispatcher droppedJobsSLA_class_1 114907
scalar FogSequentialForward.fog[41].server[0] rho 1
scalar FogSequentialForward.fog[41].server[0] congestionRatio 0
scalar FogSequentialForward.fog[41].server[0] totalJobs 1508533
scalar FogSequentialForward.fog[41].server[0] droppedJobsQueue 80270
scalar FogSequentialForward.fog[41].server[0] droppedJobsTimout 0
scalar FogSequentialForward.fog[41].server[0] droppedJobsSLA 996319
scalar FogSequentialForward.fog[41].server[0] droppedJobsTotal 1076589
scalar FogSequentialForward.fog[42].dispatcher localJobs 1509287
scalar FogSequentialForward.fog[42].dispatcher internalJobs 1622015
scalar FogSequentialForward.fog[42].dispatcher externalJobs 5239101
scalar FogSequentialForward.fog[42].dispatcher remoteJobs 5236878
scalar FogSequentialForward.fog[42].dispatcher probeQueries 0
scalar FogSequentialForward.fog[42].dispatcher probeAnswers 0
scalar FogSequentialForward.fog[42].dispatcher droppedJobsSLA 114951
scalar FogSequentialForward.fog[42].dispatcher jobs_class_1 6861116
scalar FogSequentialForward.fog[42].dispatcher remoteJobs_class_1 5236878
scalar FogSequentialForward.fog[42].dispatcher localJobs_class_1 1509287
scalar FogSequentialForward.fog[42].dispatcher droppedJobsSLA_class_1 114951
scalar FogSequentialForward.fog[42].server[0] rho 1
scalar FogSequentialForward.fog[42].server[0] congestionRatio 0
scalar FogSequentialForward.fog[42].server[0] totalJobs 1509287
scalar FogSequentialForward.fog[42].server[0] droppedJobsQueue 80173
scalar FogSequentialForward.fog[42].server[0] droppedJobsTimout 0
scalar FogSequentialForward.fog[42].server[0] droppedJobsSLA 998112
scalar FogSequentialForward.fog[42].server[0] droppedJobsTotal 1078285
scalar FogSequentialForward.fog[43].dispatcher localJobs 1508669
scalar FogSequentialForward.fog[43].dispatcher internalJobs 1621326
scalar FogSequentialForward.fog[43].dispatcher externalJobs 5238545
scalar FogSequentialForward.fog[43].dispatcher remoteJobs 5236139
scalar FogSequentialForward.fog[43].dispatcher probeQueries 0
scalar FogSequentialForward.fog[43].dispatcher probeAnswers 0
scalar FogSequentialForward.fog[43].dispatcher droppedJobsSLA 115063
scalar FogSequentialForward.fog[43].dispatcher jobs_class_1 6859871
scalar FogSequentialForward.fog[43].dispatcher remoteJobs_class_1 5236139
scalar FogSequentialForward.fog[43].dispatcher localJobs_class_1 1508669
scalar FogSequentialForward.fog[43].dispatcher droppedJobsSLA_class_1 115063
scalar FogSequentialForward.fog[43].server[0] rho 1
scalar FogSequentialForward.fog[43].server[0] congestionRatio 0
scalar FogSequentialForward.fog[43].server[0] totalJobs 1508669
scalar FogSequentialForward.fog[43].server[0] droppedJobsQueue 79894
scalar FogSequentialForward.fog[43].server[0] droppedJobsTimout 0
scalar FogSequentialForward.fog[43].server[0] droppedJobsSLA 998096
scalar FogSequentialForward.fog[43].server[0] droppedJobsTotal 1077990
scalar FogSequentialForward.fog[44].dispatcher localJobs 1508641
scalar FogSequentialForward.fog[44].dispatcher internalJobs 1623493
scalar FogSequentialForward.fog[44].dispatcher externalJobs 5235295
scalar FogSequentialForward.fog[44].dispatcher remoteJobs 5235804
scalar FogSequentialForward.fog[44].dispatcher probeQueries 0
scalar FogSequentialForward.fog[44].dispatcher probeAnswers 0
scalar FogSequentialForward.fog[44].dispatcher droppedJobsSLA 114343
scalar FogSequentialForward.fog[44].dispatcher jobs_class_1 6858788
scalar FogSequentialForward.fog[44].dispatcher remoteJobs_class_1 5235804
scalar FogSequentialForward.fog[44].dispatcher localJobs_class_1 1508641
scalar FogSequentialForward.fog[44].dispatcher droppedJobsSLA_class_1 114343
scalar FogSequentialForward.fog[44].server[0] rho 1
scalar FogSequentialForward.fog[44].server[0] congestionRatio 0
scalar FogSequentialForward.fog[44].server[0] totalJobs 1508641
scalar FogSequentialForward.fog[44].server[0] droppedJobsQueue 80035
scalar FogSequentialForward.fog[44].server[0] droppedJobsTimout 0
scalar FogSequentialForward.fog[44].server[0] droppedJobsSLA 997610
scalar FogSequentialForward.fog[44].server[0] droppedJobsTotal 1077645
scalar FogSequentialForward.fog[45].dispatcher localJobs 1509733
scalar FogSequentialForward.fog[45].dispatcher internalJobs 1621399
scalar FogSequentialForward.fog[45].dispatcher externalJobs 5236415
scalar FogSequentialForward.fog[45].dispatcher remoteJobs 5233601
scalar FogSequentialForward.fog[45].dispatcher probeQueries 0
scalar FogSequentialForward.fog[45].dispatcher probeAnswers 0
scalar FogSequentialForward.fog[45].dispatcher droppedJobsSLA 114480
scalar FogSequentialForward.fog[45].dispatcher jobs_class_1 6857814
scalar FogSequentialForward.fog[45].dispatcher remoteJobs_class_1 5233601
scalar FogSequentialForward.fog[45].dispatcher localJobs_class_1 1509733
scalar FogSequentialForward.fog[45].dispatcher droppedJobsSLA_class_1 114480
scalar FogSequentialForward.fog[45].server[0] rho 1
scalar FogSequentialForward.fog[45].server[0] congestionRatio 0
scalar FogSequentialForward.fog[45].server[0] totalJobs 1509733
scalar FogSequentialForward.fog[45].server[0] droppedJobsQueue 80227
scalar FogSequentialForward.fog[45].server[0] droppedJobsTimout 0
scalar FogSequentialForward.fog[45].server[0] droppedJobsSLA 998393
scalar FogSequentialForward.fog[45].server[0] droppedJobsTotal 1078620
scalar FogSequentialForward.fog[46].dispatcher localJobs 1508996
scalar FogSequentialForward.fog[46].dispatcher internalJobs 1622769
scalar FogSequentialForward.fog[46].dispatcher externalJobs 5234243
scalar FogSequentialForward.fog[46].dispatcher remoteJobs 5234124
scalar FogSequentialForward.fog[46].dispatcher probeQueries 0
scalar FogSequentialForward.fog[46].dispatcher probeAnswers 0
scalar FogSequentialForward.fog[46].dispatcher droppedJobsSLA 113892
scalar FogSequentialForward.fog[46].dispatcher jobs_class_1 6857012
scalar FogSequentialForward.fog[46].dispatcher remoteJobs_class_1 5234124
scalar FogSequentialForward.fog[46].dispatcher localJobs_class_1 1508996
scalar FogSequentialForward.fog[46].dispatcher droppedJobsSLA_class_1 113892
scalar FogSequentialForward.fog[46].server[0] rho 0.99999922513962
scalar FogSequentialForward.fog[46].server[0] congestionRatio 0
scalar FogSequentialForward.fog[46].server[0] totalJobs 1508996
scalar FogSequentialForward.fog[46].server[0] droppedJobsQueue 80138
scalar FogSequentialForward.fog[46].server[0] droppedJobsTimout 0
scalar FogSequentialForward.fog[46].server[0] droppedJobsSLA 997997
scalar FogSequentialForward.fog[46].server[0] droppedJobsTotal 1078135
scalar FogSequentialForward.fog[47].dispatcher localJobs 1509067
scalar FogSequentialForward.fog[47].dispatcher internalJobs 1624054
scalar FogSequentialForward.fog[47].dispatcher externalJobs 5232954
scalar FogSequentialForward.fog[47].dispatcher remoteJobs 5233669
scalar FogSequentialForward.fog[47].dispatcher probeQueries 0
scalar FogSequentialForward.fog[47].dispatcher probeAnswers 0
scalar FogSequentialForward.fog[47].dispatcher droppedJobsSLA 114272
scalar FogSequentialForward.fog[47].dispatcher jobs_class_1 6857008
scalar FogSequentialForward.fog[47].dispatcher remoteJobs_class_1 5233669
scalar FogSequentialForward.fog[47].dispatcher localJobs_class_1 1509067
scalar FogSequentialForward.fog[47].dispatcher droppedJobsSLA_class_1 114272
scalar FogSequentialForward.fog[47].server[0] rho 1
scalar FogSequentialForward.fog[47].server[0] congestionRatio 0
scalar FogSequentialForward.fog[47].server[0] totalJobs 1509067
scalar FogSequentialForward.fog[47].server[0] droppedJobsQueue 80266
scalar FogSequentialForward.fog[47].server[0] droppedJobsTimout 0
scalar FogSequentialForward.fog[47].server[0] droppedJobsSLA 997062
scalar FogSequentialForward.fog[47].server[0] droppedJobsTotal 1077328
scalar FogSequentialForward.fog[48].dispatcher localJobs 1508187
scalar FogSequentialForward.fog[48].dispatcher internalJobs 1621386
scalar FogSequentialForward.fog[48].dispatcher externalJobs 5230244
scalar FogSequentialForward.fog[48].dispatcher remoteJobs 5229488
scalar FogSequentialForward.fog[48].dispatcher probeQueries 0
scalar FogSequentialForward.fog[48].dispatcher probeAnswers 0
scalar FogSequentialForward.fog[48].dispatcher droppedJobsSLA 113955
scalar FogSequentialForward.fog[48].dispatcher jobs_class_1 6851630
scalar FogSequentialForward.fog[48].dispatcher remoteJobs_class_1 5229488
scalar FogSequentialForward.fog[48].dispatcher localJobs_class_1 1508187
scalar FogSequentialForward.fog[48].dispatcher droppedJobsSLA_class_1 113955
scalar FogSequentialForward.fog[48].server[0] rho 1
scalar FogSequentialForward.fog[48].server[0] congestionRatio 0
scalar FogSequentialForward.fog[48].server[0] totalJobs 1508187
scalar FogSequentialForward.fog[48].server[0] droppedJobsQueue 79998
scalar FogSequentialForward.fog[48].server[0] droppedJobsTimout 0
scalar FogSequentialForward.fog[48].server[0] droppedJobsSLA 997248
scalar FogSequentialForward.fog[48].server[0] droppedJobsTotal 1077246
scalar FogSequentialForward.fog[49].dispatcher localJobs 1508138
scalar FogSequentialForward.fog[49].dispatcher internalJobs 1621776
scalar FogSequentialForward.fog[49].dispatcher externalJobs 5232378
scalar FogSequentialForward.fog[49].dispatcher remoteJobs 5231798
scalar FogSequentialForward.fog[49].dispatcher probeQueries 0
scalar FogSequentialForward.fog[49].dispatcher probeAnswers 0
scalar FogSequentialForward.fog[49].dispatcher droppedJobsSLA 114218
scalar FogSequentialForward.fog[49].dispatcher jobs_class_1 6854154
scalar FogSequentialForward.fog[49].dispatcher remoteJobs_class_1 5231798
scalar FogSequentialForward.fog[49].dispatcher localJobs_class_1 1508138
scalar FogSequentialForward.fog[49].dispatcher droppedJobsSLA_class_1 114218
scalar FogSequentialForward.fog[49].server[0] rho 1
scalar FogSequentialForward.fog[49].server[0] congestionRatio 0
scalar FogSequentialForward.fog[49].server[0] totalJobs 1508138
scalar FogSequentialForward.fog[49].server[0] droppedJobsQueue 79858
scalar FogSequentialForward.fog[49].server[0] droppedJobsTimout 0
scalar FogSequentialForward.fog[49].server[0] droppedJobsSLA 996957
scalar FogSequentialForward.fog[49].server[0] droppedJobsTotal 1076815
scalar FogSequentialForward.fog[50].dispatcher localJobs 1507436
scalar FogSequentialForward.fog[50].dispatcher internalJobs 1623373
scalar FogSequentialForward.fog[50].dispatcher externalJobs 5239387
scalar FogSequentialForward.fog[50].dispatcher remoteJobs 5241474
scalar FogSequentialForward.fog[50].dispatcher probeQueries 0
scalar FogSequentialForward.fog[50].dispatcher probeAnswers 0
scalar FogSequentialForward.fog[50].dispatcher droppedJobsSLA 113850
scalar FogSequentialForward.fog[50].dispatcher jobs_class_1 6862760
scalar FogSequentialForward.fog[50].dispatcher remoteJobs_class_1 5241474
scalar FogSequentialForward.fog[50].dispatcher localJobs_class_1 1507436
scalar FogSequentialForward.fog[50].dispatcher droppedJobsSLA_class_1 113850
scalar FogSequentialForward.fog[50].server[0] rho 1
scalar FogSequentialForward.fog[50].server[0] congestionRatio 0
scalar FogSequentialForward.fog[50].server[0] totalJobs 1507436
scalar FogSequentialForward.fog[50].server[0] droppedJobsQueue 80067
scalar FogSequentialForward.fog[50].server[0] droppedJobsTimout 0
scalar FogSequentialForward.fog[50].server[0] droppedJobsSLA 996230
scalar FogSequentialForward.fog[50].server[0] droppedJobsTotal 1076297
scalar FogSequentialForward.fog[51].dispatcher localJobs 1507668
scalar FogSequentialForward.fog[51].dispatcher internalJobs 1622161
scalar FogSequentialForward.fog[51].dispatcher externalJobs 5230974
scalar FogSequentialForward.fog[51].dispatcher remoteJobs 5231088
scalar FogSequentialForward.fog[51].dispatcher probeQueries 0
scalar FogSequentialForward.fog[51].dispatcher probeAnswers 0
scalar FogSequentialForward.fog[51].dispatcher droppedJobsSLA 114379
scalar FogSequentialForward.fog[51].dispatcher jobs_class_1 6853135
scalar FogSequentialForward.fog[51].dispatcher remoteJobs_class_1 5231088
scalar FogSequentialForward.fog[51].dispatcher localJobs_class_1 1507668
scalar FogSequentialForward.fog[51].dispatcher droppedJobsSLA_class_1 114379
scalar FogSequentialForward.fog[51].server[0] rho 1
scalar FogSequentialForward.fog[51].server[0] congestionRatio 0
scalar FogSequentialForward.fog[51].server[0] totalJobs 1507668
scalar FogSequentialForward.fog[51].server[0] droppedJobsQueue 79857
scalar FogSequentialForward.fog[51].server[0] droppedJobsTimout 0
scalar FogSequentialForward.fog[51].server[0] droppedJobsSLA 996758
scalar FogSequentialForward.fog[51].server[0] droppedJobsTotal 1076615
scalar FogSequentialForward.fog[52].dispatcher localJobs 1508501
scalar FogSequentialForward.fog[52].dispatcher internalJobs 1624127
scalar FogSequentialForward.fog[52].dispatcher externalJobs 5232263
scalar FogSequentialForward.fog[52].dispatcher remoteJobs 5233009
scalar FogSequentialForward.fog[52].dispatcher probeQueries 0
scalar FogSequentialForward.fog[52].dispatcher probeAnswers 0
scalar FogSequentialForward.fog[52].dispatcher droppedJobsSLA 114880
scalar FogSequentialForward.fog[52].dispatcher jobs_class_1 6856390
scalar FogSequentialForward.fog[52].dispatcher remoteJobs_class_1 5233009
scalar FogSequentialForward.fog[52].dispatcher localJobs_class_1 1508501
scalar FogSequentialForward.fog[52].dispatcher droppedJobsSLA_class_1 114880
scalar FogSequentialForward.fog[52].server[0] rho 1
scalar FogSequentialForward.fog[52].server[0] congestionRatio 0
scalar FogSequentialForward.fog[52].server[0] totalJobs 1508501
scalar FogSequentialForward.fog[52].server[0] droppedJobsQueue 80174
scalar FogSequentialForward.fog[52].server[0] droppedJobsTimout 0
scalar FogSequentialForward.fog[52].server[0] droppedJobsSLA 996840
scalar FogSequentialForward.fog[52].server[0] droppedJobsTotal 1077014
scalar FogSequentialForward.fog[53].dispatcher localJobs 1509800
scalar FogSequentialForward.fog[53].dispatcher internalJobs 1623437
scalar FogSequentialForward.fog[53].dispatcher externalJobs 5235979
scalar FogSequentialForward.fog[53].dispatcher remoteJobs 5235174
scalar FogSequentialForward.fog[53].dispatcher probeQueries 0
scalar FogSequentialForward.fog[53].dispatcher probeAnswers 0
scalar FogSequentialForward.fog[53].dispatcher droppedJobsSLA 114442
scalar FogSequentialForward.fog[53].dispatcher jobs_class_1 6859416
scalar FogSequentialForward.fog[53].dispatcher remoteJobs_class_1 5235174
scalar FogSequentialForward.fog[53].dispatcher localJobs_class_1 1509800
scalar FogSequentialForward.fog[53].dispatcher droppedJobsSLA_class_1 114442
scalar FogSequentialForward.fog[53].server[0] rho 1
scalar FogSequentialForward.fog[53].server[0] congestionRatio 0
scalar FogSequentialForward.fog[53].server[0] totalJobs 1509800
scalar FogSequentialForward.fog[53].server[0] droppedJobsQueue 80442
scalar FogSequentialForward.fog[53].server[0] droppedJobsTimout 0
scalar FogSequentialForward.fog[53].server[0] droppedJobsSLA 998370
scalar FogSequentialForward.fog[53].server[0] droppedJobsTotal 1078812
scalar FogSequentialForward.fog[54].dispatcher localJobs 1508255
scalar FogSequentialForward.fog[54].dispatcher internalJobs 1623000
scalar FogSequentialForward.fog[54].dispatcher externalJobs 5236339
scalar FogSequentialForward.fog[54].dispatcher remoteJobs 5236427
scalar FogSequentialForward.fog[54].dispatcher probeQueries 0
scalar FogSequentialForward.fog[54].dispatcher probeAnswers 0
scalar FogSequentialForward.fog[54].dispatcher droppedJobsSLA 114657
scalar FogSequentialForward.fog[54].dispatcher jobs_class_1 6859339
scalar FogSequentialForward.fog[54].dispatcher remoteJobs_class_1 5236427
scalar FogSequentialForward.fog[54].dispatcher localJobs_class_1 1508255
scalar FogSequentialForward.fog[54].dispatcher droppedJobsSLA_class_1 114657
scalar FogSequentialForward.fog[54].server[0] rho 1
scalar FogSequentialForward.fog[54].server[0] congestionRatio 0
scalar FogSequentialForward.fog[54].server[0] totalJobs 1508255
scalar FogSequentialForward.fog[54].server[0] droppedJobsQueue 80317
scalar FogSequentialForward.fog[54].server[0] droppedJobsTimout 0
scalar FogSequentialForward.fog[54].server[0] droppedJobsSLA 996643
scalar FogSequentialForward.fog[54].server[0] droppedJobsTotal 1076960
scalar FogSequentialForward.fog[55].dispatcher localJobs 1508148
scalar FogSequentialForward.fog[55].dispatcher internalJobs 1625138
scalar FogSequentialForward.fog[55].dispatcher externalJobs 5232036
scalar FogSequentialForward.fog[55].dispatcher remoteJobs 5234318
scalar FogSequentialForward.fog[55].dispatcher probeQueries 0
scalar FogSequentialForward.fog[55].dispatcher probeAnswers 0
scalar FogSequentialForward.fog[55].dispatcher droppedJobsSLA 114708
scalar FogSequentialForward.fog[55].dispatcher jobs_class_1 6857174
scalar FogSequentialForward.fog[55].dispatcher remoteJobs_class_1 5234318
scalar FogSequentialForward.fog[55].dispatcher localJobs_class_1 1508148
scalar FogSequentialForward.fog[55].dispatcher droppedJobsSLA_class_1 114708
scalar FogSequentialForward.fog[55].server[0] rho 1
scalar FogSequentialForward.fog[55].server[0] congestionRatio 0
scalar FogSequentialForward.fog[55].server[0] totalJobs 1508148
scalar FogSequentialForward.fog[55].server[0] droppedJobsQueue 80215
scalar FogSequentialForward.fog[55].server[0] droppedJobsTimout 0
scalar FogSequentialForward.fog[55].server[0] droppedJobsSLA 997777
scalar FogSequentialForward.fog[55].server[0] droppedJobsTotal 1077992
scalar FogSequentialForward.fog[56].dispatcher localJobs 1508587
scalar FogSequentialForward.fog[56].dispatcher internalJobs 1622519
scalar FogSequentialForward.fog[56].dispatcher externalJobs 5234629
scalar FogSequentialForward.fog[56].dispatcher remoteJobs 5233568
scalar FogSequentialForward.fog[56].dispatcher probeQueries 0
scalar FogSequentialForward.fog[56].dispatcher probeAnswers 0
scalar FogSequentialForward.fog[56].dispatcher droppedJobsSLA 114993
scalar FogSequentialForward.fog[56].dispatcher jobs_class_1 6857148
scalar FogSequentialForward.fog[56].dispatcher remoteJobs_class_1 5233568
scalar FogSequentialForward.fog[56].dispatcher localJobs_class_1 1508587
scalar FogSequentialForward.fog[56].dispatcher droppedJobsSLA_class_1 114993
scalar FogSequentialForward.fog[56].server[0] rho 1
scalar FogSequentialForward.fog[56].server[0] congestionRatio 0
scalar FogSequentialForward.fog[56].server[0] totalJobs 1508587
scalar FogSequentialForward.fog[56].server[0] droppedJobsQueue 80210
scalar FogSequentialForward.fog[56].server[0] droppedJobsTimout 0
scalar FogSequentialForward.fog[56].server[0] droppedJobsSLA 997665
scalar FogSequentialForward.fog[56].server[0] droppedJobsTotal 1077875
scalar FogSequentialForward.fog[57].dispatcher localJobs 1508854
scalar FogSequentialForward.fog[57].dispatcher internalJobs 1623280
scalar FogSequentialForward.fog[57].dispatcher externalJobs 5233346
scalar FogSequentialForward.fog[57].dispatcher remoteJobs 5233601
scalar FogSequentialForward.fog[57].dispatcher probeQueries 0
scalar FogSequentialForward.fog[57].dispatcher probeAnswers 0
scalar FogSequentialForward.fog[57].dispatcher droppedJobsSLA 114171
scalar FogSequentialForward.fog[57].dispatcher jobs_class_1 6856626
scalar FogSequentialForward.fog[57].dispatcher remoteJobs_class_1 5233601
scalar FogSequentialForward.fog[57].dispatcher localJobs_class_1 1508854
scalar FogSequentialForward.fog[57].dispatcher droppedJobsSLA_class_1 114171
scalar FogSequentialForward.fog[57].server[0] rho 1
scalar FogSequentialForward.fog[57].server[0] congestionRatio 0
scalar FogSequentialForward.fog[57].server[0] totalJobs 1508854
scalar FogSequentialForward.fog[57].server[0] droppedJobsQueue 80194
scalar FogSequentialForward.fog[57].server[0] droppedJobsTimout 0
scalar FogSequentialForward.fog[57].server[0] droppedJobsSLA 997403
scalar FogSequentialForward.fog[57].server[0] droppedJobsTotal 1077597
scalar FogSequentialForward.fog[58].dispatcher localJobs 1508648
scalar FogSequentialForward.fog[58].dispatcher internalJobs 1623431
scalar FogSequentialForward.fog[58].dispatcher externalJobs 5231771
scalar FogSequentialForward.fog[58].dispatcher remoteJobs 5232794
scalar FogSequentialForward.fog[58].dispatcher probeQueries 0
scalar FogSequentialForward.fog[58].dispatcher probeAnswers 0
scalar FogSequentialForward.fog[58].dispatcher droppedJobsSLA 113760
scalar FogSequentialForward.fog[58].dispatcher jobs_class_1 6855202
scalar FogSequentialForward.fog[58].dispatcher remoteJobs_class_1 5232794
scalar FogSequentialForward.fog[58].dispatcher localJobs_class_1 1508648
scalar FogSequentialForward.fog[58].dispatcher droppedJobsSLA_class_1 113760
scalar FogSequentialForward.fog[58].server[0] rho 1
scalar FogSequentialForward.fog[58].server[0] congestionRatio 0
scalar FogSequentialForward.fog[58].server[0] totalJobs 1508648
scalar FogSequentialForward.fog[58].server[0] droppedJobsQueue 80135
scalar FogSequentialForward.fog[58].server[0] droppedJobsTimout 0
scalar FogSequentialForward.fog[58].server[0] droppedJobsSLA 998391
scalar FogSequentialForward.fog[58].server[0] droppedJobsTotal 1078526
scalar FogSequentialForward.fog[59].dispatcher localJobs 1508018
scalar FogSequentialForward.fog[59].dispatcher internalJobs 1622871
scalar FogSequentialForward.fog[59].dispatcher externalJobs 5239308
scalar FogSequentialForward.fog[59].dispatcher remoteJobs 5239484
scalar FogSequentialForward.fog[59].dispatcher probeQueries 0
scalar FogSequentialForward.fog[59].dispatcher probeAnswers 0
scalar FogSequentialForward.fog[59].dispatcher droppedJobsSLA 114677
scalar FogSequentialForward.fog[59].dispatcher jobs_class_1 6862179
scalar FogSequentialForward.fog[59].dispatcher remoteJobs_class_1 5239484
scalar FogSequentialForward.fog[59].dispatcher localJobs_class_1 1508018
scalar FogSequentialForward.fog[59].dispatcher droppedJobsSLA_class_1 114677
scalar FogSequentialForward.fog[59].server[0] rho 1
scalar FogSequentialForward.fog[59].server[0] congestionRatio 0
scalar FogSequentialForward.fog[59].server[0] totalJobs 1508018
scalar FogSequentialForward.fog[59].server[0] droppedJobsQueue 80174
scalar FogSequentialForward.fog[59].server[0] droppedJobsTimout 0
scalar FogSequentialForward.fog[59].server[0] droppedJobsSLA 996862
scalar FogSequentialForward.fog[59].server[0] droppedJobsTotal 1077036
scalar FogSequentialForward.fog[60].dispatcher localJobs 1507905
scalar FogSequentialForward.fog[60].dispatcher internalJobs 1624027
scalar FogSequentialForward.fog[60].dispatcher externalJobs 5236270
scalar FogSequentialForward.fog[60].dispatcher remoteJobs 5237148
scalar FogSequentialForward.fog[60].dispatcher probeQueries 0
scalar FogSequentialForward.fog[60].dispatcher probeAnswers 0
scalar FogSequentialForward.fog[60].dispatcher droppedJobsSLA 115244
scalar FogSequentialForward.fog[60].dispatcher jobs_class_1 6860297
scalar FogSequentialForward.fog[60].dispatcher remoteJobs_class_1 5237148
scalar FogSequentialForward.fog[60].dispatcher localJobs_class_1 1507905
scalar FogSequentialForward.fog[60].dispatcher droppedJobsSLA_class_1 115244
scalar FogSequentialForward.fog[60].server[0] rho 1
scalar FogSequentialForward.fog[60].server[0] congestionRatio 0
scalar FogSequentialForward.fog[60].server[0] totalJobs 1507905
scalar FogSequentialForward.fog[60].server[0] droppedJobsQueue 80102
scalar FogSequentialForward.fog[60].server[0] droppedJobsTimout 0
scalar FogSequentialForward.fog[60].server[0] droppedJobsSLA 996585
scalar FogSequentialForward.fog[60].server[0] droppedJobsTotal 1076687
scalar FogSequentialForward.fog[61].dispatcher localJobs 1508144
scalar FogSequentialForward.fog[61].dispatcher internalJobs 1623282
scalar FogSequentialForward.fog[61].dispatcher externalJobs 5235415
scalar FogSequentialForward.fog[61].dispatcher remoteJobs 5235590
scalar FogSequentialForward.fog[61].dispatcher probeQueries 0
scalar FogSequentialForward.fog[61].dispatcher probeAnswers 0
scalar FogSequentialForward.fog[61].dispatcher droppedJobsSLA 114963
scalar FogSequentialForward.fog[61].dispatcher jobs_class_1 6858697
scalar FogSequentialForward.fog[61].dispatcher remoteJobs_class_1 5235590
scalar FogSequentialForward.fog[61].dispatcher localJobs_class_1 1508144
scalar FogSequentialForward.fog[61].dispatcher droppedJobsSLA_class_1 114963
scalar FogSequentialForward.fog[61].server[0] rho 1
scalar FogSequentialForward.fog[61].server[0] congestionRatio 0
scalar FogSequentialForward.fog[61].server[0] totalJobs 1508144
scalar FogSequentialForward.fog[61].server[0] droppedJobsQueue 80043
scalar FogSequentialForward.fog[61].server[0] droppedJobsTimout 0
scalar FogSequentialForward.fog[61].server[0] droppedJobsSLA 997053
scalar FogSequentialForward.fog[61].server[0] droppedJobsTotal 1077096
scalar FogSequentialForward.fog[62].dispatcher localJobs 1508684
scalar FogSequentialForward.fog[62].dispatcher internalJobs 1623862
scalar FogSequentialForward.fog[62].dispatcher externalJobs 5235115
scalar FogSequentialForward.fog[62].dispatcher remoteJobs 5235096
scalar FogSequentialForward.fog[62].dispatcher probeQueries 0
scalar FogSequentialForward.fog[62].dispatcher probeAnswers 0
scalar FogSequentialForward.fog[62].dispatcher droppedJobsSLA 115197
scalar FogSequentialForward.fog[62].dispatcher jobs_class_1 6858977
scalar FogSequentialForward.fog[62].dispatcher remoteJobs_class_1 5235096
scalar FogSequentialForward.fog[62].dispatcher localJobs_class_1 1508684
scalar FogSequentialForward.fog[62].dispatcher droppedJobsSLA_class_1 115197
scalar FogSequentialForward.fog[62].server[0] rho 1
scalar FogSequentialForward.fog[62].server[0] congestionRatio 0
scalar FogSequentialForward.fog[62].server[0] totalJobs 1508684
scalar FogSequentialForward.fog[62].server[0] droppedJobsQueue 79960
scalar FogSequentialForward.fog[62].server[0] droppedJobsTimout 0
scalar FogSequentialForward.fog[62].server[0] droppedJobsSLA 997608
scalar FogSequentialForward.fog[62].server[0] droppedJobsTotal 1077568
scalar FogSequentialForward.fog[63].dispatcher localJobs 1508967
scalar FogSequentialForward.fog[63].dispatcher internalJobs 1623696
scalar FogSequentialForward.fog[63].dispatcher externalJobs 5231660
scalar FogSequentialForward.fog[63].dispatcher remoteJobs 5231470
scalar FogSequentialForward.fog[63].dispatcher probeQueries 0
scalar FogSequentialForward.fog[63].dispatcher probeAnswers 0
scalar FogSequentialForward.fog[63].dispatcher droppedJobsSLA 114919
scalar FogSequentialForward.fog[63].dispatcher jobs_class_1 6855356
scalar FogSequentialForward.fog[63].dispatcher remoteJobs_class_1 5231470
scalar FogSequentialForward.fog[63].dispatcher localJobs_class_1 1508967
scalar FogSequentialForward.fog[63].dispatcher droppedJobsSLA_class_1 114919
scalar FogSequentialForward.fog[63].server[0] rho 1
scalar FogSequentialForward.fog[63].server[0] congestionRatio 0
scalar FogSequentialForward.fog[63].server[0] totalJobs 1508967
scalar FogSequentialForward.fog[63].server[0] droppedJobsQueue 80298
scalar FogSequentialForward.fog[63].server[0] droppedJobsTimout 0
scalar FogSequentialForward.fog[63].server[0] droppedJobsSLA 997403
scalar FogSequentialForward.fog[63].server[0] droppedJobsTotal 1077701
scalar FogSequentialForward.fog[64].dispatcher localJobs 1508355
scalar FogSequentialForward.fog[64].dispatcher internalJobs 1621798
scalar FogSequentialForward.fog[64].dispatcher externalJobs 5234077
scalar FogSequentialForward.fog[64].dispatcher remoteJobs 5233355
scalar FogSequentialForward.fog[64].dispatcher probeQueries 0
scalar FogSequentialForward.fog[64].dispatcher probeAnswers 0
scalar FogSequentialForward.fog[64].dispatcher droppedJobsSLA 114165
scalar FogSequentialForward.fog[64].dispatcher jobs_class_1 6855875
scalar FogSequentialForward.fog[64].dispatcher remoteJobs_class_1 5233355
scalar FogSequentialForward.fog[64].dispatcher localJobs_class_1 1508355
scalar FogSequentialForward.fog[64].dispatcher droppedJobsSLA_class_1 114165
scalar FogSequentialForward.fog[64].server[0] rho 1
scalar FogSequentialForward.fog[64].server[0] congestionRatio 0
scalar FogSequentialForward.fog[64].server[0] totalJobs 1508355
scalar FogSequentialForward.fog[64].server[0] droppedJobsQueue 80268
scalar FogSequentialForward.fog[64].server[0] droppedJobsTimout 0
scalar FogSequentialForward.fog[64].server[0] droppedJobsSLA 997201
scalar FogSequentialForward.fog[64].server[0] droppedJobsTotal 1077469
scalar FogSequentialForward.fog[65].dispatcher localJobs 1507997
scalar FogSequentialForward.fog[65].dispatcher internalJobs 1623546
scalar FogSequentialForward.fog[65].dispatcher externalJobs 5235016
scalar FogSequentialForward.fog[65].dispatcher remoteJobs 5236421
scalar FogSequentialForward.fog[65].dispatcher probeQueries 0
scalar FogSequentialForward.fog[65].dispatcher probeAnswers 0
[...]
scalar FogSequentialForward.fog[84].dispatcher jobs_class_1 6854986
scalar FogSequentialForward.fog[84].dispatcher remoteJobs_class_1 5231650
scalar FogSequentialForward.fog[84].dispatcher localJobs_class_1 1508651
scalar FogSequentialForward.fog[84].dispatcher droppedJobsSLA_class_1 114685
scalar FogSequentialForward.fog[84].server[0] rho 1
scalar FogSequentialForward.fog[84].server[0] congestionRatio 0
scalar FogSequentialForward.fog[84].server[0] totalJobs 1508651
scalar FogSequentialForward.fog[84].server[0] droppedJobsQueue 80191
scalar FogSequentialForward.fog[84].server[0] droppedJobsTimout 0
scalar FogSequentialForward.fog[84].server[0] droppedJobsSLA 997100
scalar FogSequentialForward.fog[84].server[0] droppedJobsTotal 1077291
scalar FogSequentialForward.fog[85].dispatcher localJobs 1508820
scalar FogSequentialForward.fog[85].dispatcher internalJobs 1621955
scalar FogSequentialForward.fog[85].dispatcher externalJobs 5236905
scalar FogSequentialForward.fog[85].dispatcher remoteJobs 5235563
scalar FogSequentialForward.fog[85].dispatcher probeQueries 0
scalar FogSequentialForward.fog[85].dispatcher probeAnswers 0
scalar FogSequentialForward.fog[85].dispatcher droppedJobsSLA 114477
scalar FogSequentialForward.fog[85].dispatcher jobs_class_1 6858860
scalar FogSequentialForward.fog[85].dispatcher remoteJobs_class_1 5235563
scalar FogSequentialForward.fog[85].dispatcher localJobs_class_1 1508820
scalar FogSequentialForward.fog[85].dispatcher droppedJobsSLA_class_1 114477
scalar FogSequentialForward.fog[85].server[0] rho 1
scalar FogSequentialForward.fog[85].server[0] congestionRatio 0
scalar FogSequentialForward.fog[85].server[0] totalJobs 1508820
scalar FogSequentialForward.fog[85].server[0] droppedJobsQueue 80309
scalar FogSequentialForward.fog[85].server[0] droppedJobsTimout 0
scalar FogSequentialForward.fog[85].server[0] droppedJobsSLA 997550
scalar FogSequentialForward.fog[85].server[0] droppedJobsTotal 1077859
scalar FogSequentialForward.fog[86].dispatcher localJobs 1508859
scalar FogSequentialForward.fog[86].dispatcher internalJobs 1623518
scalar FogSequentialForward.fog[86].dispatcher externalJobs 5233894
scalar FogSequentialForward.fog[86].dispatcher remoteJobs 5234420
scalar FogSequentialForward.fog[86].dispatcher probeQueries 0
scalar FogSequentialForward.fog[86].dispatcher probeAnswers 0
scalar FogSequentialForward.fog[86].dispatcher droppedJobsSLA 114133
scalar FogSequentialForward.fog[86].dispatcher jobs_class_1 6857412
scalar FogSequentialForward.fog[86].dispatcher remoteJobs_class_1 5234420
scalar FogSequentialForward.fog[86].dispatcher localJobs_class_1 1508859
scalar FogSequentialForward.fog[86].dispatcher droppedJobsSLA_class_1 114133
scalar FogSequentialForward.fog[86].server[0] rho 1
scalar FogSequentialForward.fog[86].server[0] congestionRatio 0
scalar FogSequentialForward.fog[86].server[0] totalJobs 1508859
scalar FogSequentialForward.fog[86].server[0] droppedJobsQueue 80249
scalar FogSequentialForward.fog[86].server[0] droppedJobsTimout 0
scalar FogSequentialForward.fog[86].server[0] droppedJobsSLA 997313
scalar FogSequentialForward.fog[86].server[0] droppedJobsTotal 1077562
scalar FogSequentialForward.fog[87].dispatcher localJobs 1508855
scalar FogSequentialForward.fog[87].dispatcher internalJobs 1621706
scalar FogSequentialForward.fog[87].dispatcher externalJobs 5233183
scalar FogSequentialForward.fog[87].dispatcher remoteJobs 5231573
scalar FogSequentialForward.fog[87].dispatcher probeQueries 0
scalar FogSequentialForward.fog[87].dispatcher probeAnswers 0
scalar FogSequentialForward.fog[87].dispatcher droppedJobsSLA 114461
scalar FogSequentialForward.fog[87].dispatcher jobs_class_1 6854889
scalar FogSequentialForward.fog[87].dispatcher remoteJobs_class_1 5231573
scalar FogSequentialForward.fog[87].dispatcher localJobs_class_1 1508855
scalar FogSequentialForward.fog[87].dispatcher droppedJobsSLA_class_1 114461
scalar FogSequentialForward.fog[87].server[0] rho 1
scalar FogSequentialForward.fog[87].server[0] congestionRatio 0
scalar FogSequentialForward.fog[87].server[0] totalJobs 1508855
scalar FogSequentialForward.fog[87].server[0] droppedJobsQueue 80066
scalar FogSequentialForward.fog[87].server[0] droppedJobsTimout 0
scalar FogSequentialForward.fog[87].server[0] droppedJobsSLA 997862
scalar FogSequentialForward.fog[87].server[0] droppedJobsTotal 1077928
scalar FogSequentialForward.fog[88].dispatcher localJobs 1507689
scalar FogSequentialForward.fog[88].dispatcher internalJobs 1622199
scalar FogSequentialForward.fog[88].dispatcher externalJobs 5234896
scalar FogSequentialForward.fog[88].dispatcher remoteJobs 5234968
scalar FogSequentialForward.fog[88].dispatcher probeQueries 0
scalar FogSequentialForward.fog[88].dispatcher probeAnswers 0
scalar FogSequentialForward.fog[88].dispatcher droppedJobsSLA 114438
scalar FogSequentialForward.fog[88].dispatcher jobs_class_1 6857095
scalar FogSequentialForward.fog[88].dispatcher remoteJobs_class_1 5234968
scalar FogSequentialForward.fog[88].dispatcher localJobs_class_1 1507689
scalar FogSequentialForward.fog[88].dispatcher droppedJobsSLA_class_1 114438
scalar FogSequentialForward.fog[88].server[0] rho 1
scalar FogSequentialForward.fog[88].server[0] congestionRatio 0
scalar FogSequentialForward.fog[88].server[0] totalJobs 1507689
scalar FogSequentialForward.fog[88].server[0] droppedJobsQueue 79721
scalar FogSequentialForward.fog[88].server[0] droppedJobsTimout 0
scalar FogSequentialForward.fog[88].server[0] droppedJobsSLA 996839
scalar FogSequentialForward.fog[88].server[0] droppedJobsTotal 1076560
scalar FogSequentialForward.fog[89].dispatcher localJobs 1509104
scalar FogSequentialForward.fog[89].dispatcher internalJobs 1623459
scalar FogSequentialForward.fog[89].dispatcher externalJobs 5232656
scalar FogSequentialForward.fog[89].dispatcher remoteJobs 5232681
scalar FogSequentialForward.fog[89].dispatcher probeQueries 0
scalar FogSequentialForward.fog[89].dispatcher probeAnswers 0
scalar FogSequentialForward.fog[89].dispatcher droppedJobsSLA 114330
scalar FogSequentialForward.fog[89].dispatcher jobs_class_1 6856115
scalar FogSequentialForward.fog[89].dispatcher remoteJobs_class_1 5232681
scalar FogSequentialForward.fog[89].dispatcher localJobs_class_1 1509104
scalar FogSequentialForward.fog[89].dispatcher droppedJobsSLA_class_1 114330
scalar FogSequentialForward.fog[89].server[0] rho 1
scalar FogSequentialForward.fog[89].server[0] congestionRatio 0
scalar FogSequentialForward.fog[89].server[0] totalJobs 1509104
scalar FogSequentialForward.fog[89].server[0] droppedJobsQueue 80102
scalar FogSequentialForward.fog[89].server[0] droppedJobsTimout 0
scalar FogSequentialForward.fog[89].server[0] droppedJobsSLA 997709
scalar FogSequentialForward.fog[89].server[0] droppedJobsTotal 1077811
scalar FogSequentialForward.fog[90].dispatcher localJobs 1507580
scalar FogSequentialForward.fog[90].dispatcher internalJobs 1623125
scalar FogSequentialForward.fog[90].dispatcher externalJobs 5234696
scalar FogSequentialForward.fog[90].dispatcher remoteJobs 5235387
scalar FogSequentialForward.fog[90].dispatcher probeQueries 0
scalar FogSequentialForward.fog[90].dispatcher probeAnswers 0
scalar FogSequentialForward.fog[90].dispatcher droppedJobsSLA 114854
scalar FogSequentialForward.fog[90].dispatcher jobs_class_1 6857821
scalar FogSequentialForward.fog[90].dispatcher remoteJobs_class_1 5235387
scalar FogSequentialForward.fog[90].dispatcher localJobs_class_1 1507580
scalar FogSequentialForward.fog[90].dispatcher droppedJobsSLA_class_1 114854
scalar FogSequentialForward.fog[90].server[0] rho 1
scalar FogSequentialForward.fog[90].server[0] congestionRatio 0
scalar FogSequentialForward.fog[90].server[0] totalJobs 1507580
scalar FogSequentialForward.fog[90].server[0] droppedJobsQueue 80149
scalar FogSequentialForward.fog[90].server[0] droppedJobsTimout 0
scalar FogSequentialForward.fog[90].server[0] droppedJobsSLA 996903
scalar FogSequentialForward.fog[90].server[0] droppedJobsTotal 1077052
scalar FogSequentialForward.fog[91].dispatcher localJobs 1508525
scalar FogSequentialForward.fog[91].dispatcher internalJobs 1623250
scalar FogSequentialForward.fog[91].dispatcher externalJobs 5231762
scalar FogSequentialForward.fog[91].dispatcher remoteJobs 5231312
scalar FogSequentialForward.fog[91].dispatcher probeQueries 0
scalar FogSequentialForward.fog[91].dispatcher probeAnswers 0
scalar FogSequentialForward.fog[91].dispatcher droppedJobsSLA 115175
scalar FogSequentialForward.fog[91].dispatcher jobs_class_1 6855012
scalar FogSequentialForward.fog[91].dispatcher remoteJobs_class_1 5231312
scalar FogSequentialForward.fog[91].dispatcher localJobs_class_1 1508525
scalar FogSequentialForward.fog[91].dispatcher droppedJobsSLA_class_1 115175
scalar FogSequentialForward.fog[91].server[0] rho 0.99999940395355
scalar FogSequentialForward.fog[91].server[0] congestionRatio 0
scalar FogSequentialForward.fog[91].server[0] totalJobs 1508525
scalar FogSequentialForward.fog[91].server[0] droppedJobsQueue 80090
scalar FogSequentialForward.fog[91].server[0] droppedJobsTimout 0
scalar FogSequentialForward.fog[91].server[0] droppedJobsSLA 997451
scalar FogSequentialForward.fog[91].server[0] droppedJobsTotal 1077541
scalar FogSequentialForward.fog[92].dispatcher localJobs 1508041
scalar FogSequentialForward.fog[92].dispatcher internalJobs 1625381
scalar FogSequentialForward.fog[92].dispatcher externalJobs 5230597
scalar FogSequentialForward.fog[92].dispatcher remoteJobs 5233594
scalar FogSequentialForward.fog[92].dispatcher probeQueries 0
scalar FogSequentialForward.fog[92].dispatcher probeAnswers 0
scalar FogSequentialForward.fog[92].dispatcher droppedJobsSLA 114343
scalar FogSequentialForward.fog[92].dispatcher jobs_class_1 6855978
scalar FogSequentialForward.fog[92].dispatcher remoteJobs_class_1 5233594
scalar FogSequentialForward.fog[92].dispatcher localJobs_class_1 1508041
scalar FogSequentialForward.fog[92].dispatcher droppedJobsSLA_class_1 114343
scalar FogSequentialForward.fog[92].server[0] rho 1
scalar FogSequentialForward.fog[92].server[0] congestionRatio 0
scalar FogSequentialForward.fog[92].server[0] totalJobs 1508041
scalar FogSequentialForward.fog[92].server[0] droppedJobsQueue 80061
scalar FogSequentialForward.fog[92].server[0] droppedJobsTimout 0
scalar FogSequentialForward.fog[92].server[0] droppedJobsSLA 997259
scalar FogSequentialForward.fog[92].server[0] droppedJobsTotal 1077320
scalar FogSequentialForward.fog[93].dispatcher localJobs 1508468
scalar FogSequentialForward.fog[93].dispatcher internalJobs 1623173
scalar FogSequentialForward.fog[93].dispatcher externalJobs 5235959
scalar FogSequentialForward.fog[93].dispatcher remoteJobs 5236352
scalar FogSequentialForward.fog[93].dispatcher probeQueries 0
scalar FogSequentialForward.fog[93].dispatcher probeAnswers 0
scalar FogSequentialForward.fog[93].dispatcher droppedJobsSLA 114312
scalar FogSequentialForward.fog[93].dispatcher jobs_class_1 6859132
scalar FogSequentialForward.fog[93].dispatcher remoteJobs_class_1 5236352
scalar FogSequentialForward.fog[93].dispatcher localJobs_class_1 1508468
scalar FogSequentialForward.fog[93].dispatcher droppedJobsSLA_class_1 114312
scalar FogSequentialForward.fog[93].server[0] rho 1
scalar FogSequentialForward.fog[93].server[0] congestionRatio 0
scalar FogSequentialForward.fog[93].server[0] totalJobs 1508468
scalar FogSequentialForward.fog[93].server[0] droppedJobsQueue 80064
scalar FogSequentialForward.fog[93].server[0] droppedJobsTimout 0
scalar FogSequentialForward.fog[93].server[0] droppedJobsSLA 998052
scalar FogSequentialForward.fog[93].server[0] droppedJobsTotal 1078116
scalar FogSequentialForward.fog[94].dispatcher localJobs 1508380
scalar FogSequentialForward.fog[94].dispatcher internalJobs 1623678
scalar FogSequentialForward.fog[94].dispatcher externalJobs 5230906
scalar FogSequentialForward.fog[94].dispatcher remoteJobs 5231630
scalar FogSequentialForward.fog[94].dispatcher probeQueries 0
scalar FogSequentialForward.fog[94].dispatcher probeAnswers 0
scalar FogSequentialForward.fog[94].dispatcher droppedJobsSLA 114574
scalar FogSequentialForward.fog[94].dispatcher jobs_class_1 6854584
scalar FogSequentialForward.fog[94].dispatcher remoteJobs_class_1 5231630
scalar FogSequentialForward.fog[94].dispatcher localJobs_class_1 1508380
scalar FogSequentialForward.fog[94].dispatcher droppedJobsSLA_class_1 114574
scalar FogSequentialForward.fog[94].server[0] rho 1
scalar FogSequentialForward.fog[94].server[0] congestionRatio 0
scalar FogSequentialForward.fog[94].server[0] totalJobs 1508380
scalar FogSequentialForward.fog[94].server[0] droppedJobsQueue 80190
scalar FogSequentialForward.fog[94].server[0] droppedJobsTimout 0
scalar FogSequentialForward.fog[94].server[0] droppedJobsSLA 997861
scalar FogSequentialForward.fog[94].server[0] droppedJobsTotal 1078051
scalar FogSequentialForward.fog[95].dispatcher localJobs 1507684
scalar FogSequentialForward.fog[95].dispatcher internalJobs 1624598
scalar FogSequentialForward.fog[95].dispatcher externalJobs 5236310
scalar FogSequentialForward.fog[95].dispatcher remoteJobs 5238348
scalar FogSequentialForward.fog[95].dispatcher probeQueries 0
scalar FogSequentialForward.fog[95].dispatcher probeAnswers 0
scalar FogSequentialForward.fog[95].dispatcher droppedJobsSLA 114876
scalar FogSequentialForward.fog[95].dispatcher jobs_class_1 6860908
scalar FogSequentialForward.fog[95].dispatcher remoteJobs_class_1 5238348
scalar FogSequentialForward.fog[95].dispatcher localJobs_class_1 1507684
scalar FogSequentialForward.fog[95].dispatcher droppedJobsSLA_class_1 114876
scalar FogSequentialForward.fog[95].server[0] rho 1
scalar FogSequentialForward.fog[95].server[0] congestionRatio 0
scalar FogSequentialForward.fog[95].server[0] totalJobs 1507684
scalar FogSequentialForward.fog[95].server[0] droppedJobsQueue 80054
scalar FogSequentialForward.fog[95].server[0] droppedJobsTimout 0
scalar FogSequentialForward.fog[95].server[0] droppedJobsSLA 996679
scalar FogSequentialForward.fog[95].server[0] droppedJobsTotal 1076733
scalar FogSequentialForward.fog[96].dispatcher localJobs 1508807
scalar FogSequentialForward.fog[96].dispatcher internalJobs 1622472
scalar FogSequentialForward.fog[96].dispatcher externalJobs 5233486
scalar FogSequentialForward.fog[96].dispatcher remoteJobs 5231848
scalar FogSequentialForward.fog[96].dispatcher probeQueries 0
scalar FogSequentialForward.fog[96].dispatcher probeAnswers 0
scalar FogSequentialForward.fog[96].dispatcher droppedJobsSLA 115303
scalar FogSequentialForward.fog[96].dispatcher jobs_class_1 6855958
scalar FogSequentialForward.fog[96].dispatcher remoteJobs_class_1 5231848
scalar FogSequentialForward.fog[96].dispatcher localJobs_class_1 1508807
scalar FogSequentialForward.fog[96].dispatcher droppedJobsSLA_class_1 115303
scalar FogSequentialForward.fog[96].server[0] rho 1
scalar FogSequentialForward.fog[96].server[0] congestionRatio 0
scalar FogSequentialForward.fog[96].server[0] totalJobs 1508807
scalar FogSequentialForward.fog[96].server[0] droppedJobsQueue 80024
scalar FogSequentialForward.fog[96].server[0] droppedJobsTimout 0
scalar FogSequentialForward.fog[96].server[0] droppedJobsSLA 997058
scalar FogSequentialForward.fog[96].server[0] droppedJobsTotal 1077082
scalar FogSequentialForward.fog[97].dispatcher localJobs 1508931
scalar FogSequentialForward.fog[97].dispatcher internalJobs 1623120
scalar FogSequentialForward.fog[97].dispatcher externalJobs 5234127
scalar FogSequentialForward.fog[97].dispatcher remoteJobs 5233890
scalar FogSequentialForward.fog[97].dispatcher probeQueries 0
scalar FogSequentialForward.fog[97].dispatcher probeAnswers 0
scalar FogSequentialForward.fog[97].dispatcher droppedJobsSLA 114426
scalar FogSequentialForward.fog[97].dispatcher jobs_class_1 6857247
scalar FogSequentialForward.fog[97].dispatcher remoteJobs_class_1 5233890
scalar FogSequentialForward.fog[97].dispatcher localJobs_class_1 1508931
scalar FogSequentialForward.fog[97].dispatcher droppedJobsSLA_class_1 114426
scalar FogSequentialForward.fog[97].server[0] rho 1
scalar FogSequentialForward.fog[97].server[0] congestionRatio 0
scalar FogSequentialForward.fog[97].server[0] totalJobs 1508931
scalar FogSequentialForward.fog[97].server[0] droppedJobsQueue 80113
scalar FogSequentialForward.fog[97].server[0] droppedJobsTimout 0
scalar FogSequentialForward.fog[97].server[0] droppedJobsSLA 997472
scalar FogSequentialForward.fog[97].server[0] droppedJobsTotal 1077585
scalar FogSequentialForward.fog[98].dispatcher localJobs 1508697
scalar FogSequentialForward.fog[98].dispatcher internalJobs 1622899
scalar FogSequentialForward.fog[98].dispatcher externalJobs 5235266
scalar FogSequentialForward.fog[98].dispatcher remoteJobs 5234513
scalar FogSequentialForward.fog[98].dispatcher probeQueries 0
scalar FogSequentialForward.fog[98].dispatcher probeAnswers 0
scalar FogSequentialForward.fog[98].dispatcher droppedJobsSLA 114955
scalar FogSequentialForward.fog[98].dispatcher jobs_class_1 6858165
scalar FogSequentialForward.fog[98].dispatcher remoteJobs_class_1 5234513
scalar FogSequentialForward.fog[98].dispatcher localJobs_class_1 1508697
scalar FogSequentialForward.fog[98].dispatcher droppedJobsSLA_class_1 114955
scalar FogSequentialForward.fog[98].server[0] rho 1
scalar FogSequentialForward.fog[98].server[0] congestionRatio 0
scalar FogSequentialForward.fog[98].server[0] totalJobs 1508697
scalar FogSequentialForward.fog[98].server[0] droppedJobsQueue 80081
scalar FogSequentialForward.fog[98].server[0] droppedJobsTimout 0
scalar FogSequentialForward.fog[98].server[0] droppedJobsSLA 998445
scalar FogSequentialForward.fog[98].server[0] droppedJobsTotal 1078526
scalar FogSequentialForward.fog[99].dispatcher localJobs 1507975
scalar FogSequentialForward.fog[99].dispatcher internalJobs 1622976
scalar FogSequentialForward.fog[99].dispatcher externalJobs 5230733
scalar FogSequentialForward.fog[99].dispatcher remoteJobs 5231448
scalar FogSequentialForward.fog[99].dispatcher probeQueries 0
scalar FogSequentialForward.fog[99].dispatcher probeAnswers 0
scalar FogSequentialForward.fog[99].dispatcher droppedJobsSLA 114286
scalar FogSequentialForward.fog[99].dispatcher jobs_class_1 6853709
scalar FogSequentialForward.fog[99].dispatcher remoteJobs_class_1 5231448
scalar FogSequentialForward.fog[99].dispatcher localJobs_class_1 1507975
scalar FogSequentialForward.fog[99].dispatcher droppedJobsSLA_class_1 114286
scalar FogSequentialForward.fog[99].server[0] rho 1
scalar FogSequentialForward.fog[99].server[0] congestionRatio 0
scalar FogSequentialForward.fog[99].server[0] totalJobs 1507975
scalar FogSequentialForward.fog[99].server[0] droppedJobsQueue 79872
scalar FogSequentialForward.fog[99].server[0] droppedJobsTimout 0
scalar FogSequentialForward.fog[99].server[0] droppedJobsSLA 996994
scalar FogSequentialForward.fog[99].server[0] droppedJobsTotal 1076866
scalar FogSequentialForward.sink avg_responseTime_1 0.14427388869328
scalar FogSequentialForward.sink p90_responseTime_1 0.015945737652
scalar FogSequentialForward.sink med_responseTime_1 0.015945737652
scalar FogSequentialForward.sink avg_delayTime_1 0
scalar FogSequentialForward.sink p90_delayTime_1 0
scalar FogSequentialForward.sink med_delayTime_1 0
scalar FogSequentialForward.sink avg_queuingTime_1 0.1164767919523
scalar FogSequentialForward.sink p90_queuingTime_1 0
scalar FogSequentialForward.sink med_queuingTime_1 0
scalar FogSequentialForward.sink avg_serviceTime_1 0.016732655029823
scalar FogSequentialForward.sink p90_serviceTime_1 0.014602721882
scalar FogSequentialForward.sink med_serviceTime_1 0.014602721882
scalar FogSequentialForward.sink avg_balancerTime_1 0.011064441708797
scalar FogSequentialForward.sink p90_balancerTime_1 0
scalar FogSequentialForward.sink med_balancerTime_1 0
scalar FogSequentialForward.sink avg_balancerCount_1 1.6625414198335
scalar FogSequentialForward.sink p90_balancerCount_1 1
scalar FogSequentialForward.sink med_balancerCount_1 1

