version 2
run Fog-mul_10-rho_08-thr_2-4-20190714-03:02:38-93417
attr configname Fog-mul_10-rho_08-thr_2
attr datetime 20190714-03:02:38
attr experiment Fog-mul_10-rho_08-thr_2
attr inifile FogSequentialForward.ini
attr iterationvars ""
attr iterationvarsf ""
attr measurement ""
attr network FogSequentialForward
attr processid 93417
attr repetition 4
attr replication #4
attr resultdir results
attr runnumber 4
attr seedset 4
param FogSequentialForward.proctimeMul 1.0
param FogSequentialForward.rho 0.8
param FogSequentialForward.fog[*].dispatcher.thr 2
param FogSequentialForward.nSources 100
param FogSequentialForward.rho 0.9
param FogSequentialForward.proctimeMul 1.0
param FogSequentialForward.source[*].appId 1
param FogSequentialForward.source[*].realTime true
param FogSequentialForward.source[*].multiHop true
param FogSequentialForward.fog[*].nServers 1
param FogSequentialForward.fog[*].dispatcher.fanOut 1
param FogSequentialForward.fog[*].server[*].timeSlice -1s
param FogSequentialForward.fog[*].server[*].timeout -1s
param FogSequentialForward.fog[*].server[*].capacity 20
param FogSequentialForward.fog[*].server[*].fifo true
param FogSequentialForward.fog[*].server[*].maxServiceTime -1s
param FogSequentialForward.fog[*].dispatcher.thr 1

scalar FogSequentialForward.fog[0].dispatcher localJobs 13946
scalar FogSequentialForward.fog[0].dispatcher internalJobs 14549
scalar FogSequentialForward.fog[0].dispatcher externalJobs 3972626
scalar FogSequentialForward.fog[0].dispatcher remoteJobs 3972775
scalar FogSequentialForward.fog[0].dispatcher probeQueries 0
scalar FogSequentialForward.fog[0].dispatcher probeAnswers 0
scalar FogSequentialForward.fog[0].dispatcher droppedJobsSLA 454
scalar FogSequentialForward.fog[0].dispatcher jobs_class_1 3987175
scalar FogSequentialForward.fog[0].dispatcher remoteJobs_class_1 3972775
scalar FogSequentialForward.fog[0].dispatcher localJobs_class_1 13946
scalar FogSequentialForward.fog[0].dispatcher droppedJobsSLA_class_1 454
scalar FogSequentialForward.fog[0].server[0] rho 0.99983203411102
scalar FogSequentialForward.fog[0].server[0] congestionRatio 0
scalar FogSequentialForward.fog[0].server[0] totalJobs 13946
scalar FogSequentialForward.fog[0].server[0] droppedJobsQueue 633
scalar FogSequentialForward.fog[0].server[0] droppedJobsTimout 0
scalar FogSequentialForward.fog[0].server[0] droppedJobsSLA 8160
scalar FogSequentialForward.fog[0].server[0] droppedJobsTotal 8793
scalar FogSequentialForward.fog[1].dispatcher localJobs 13958
scalar FogSequentialForward.fog[1].dispatcher internalJobs 14500
scalar FogSequentialForward.fog[1].dispatcher externalJobs 3973888
scalar FogSequentialForward.fog[1].dispatcher remoteJobs 3973988
scalar FogSequentialForward.fog[1].dispatcher probeQueries 0
scalar FogSequentialForward.fog[1].dispatcher probeAnswers 0
scalar FogSequentialForward.fog[1].dispatcher droppedJobsSLA 442
scalar FogSequentialForward.fog[1].dispatcher jobs_class_1 3988388
scalar FogSequentialForward.fog[1].dispatcher remoteJobs_class_1 3973988
scalar FogSequentialForward.fog[1].dispatcher localJobs_class_1 13958
scalar FogSequentialForward.fog[1].dispatcher droppedJobsSLA_class_1 442
scalar FogSequentialForward.fog[1].server[0] rho 0.99983203411102
scalar FogSequentialForward.fog[1].server[0] congestionRatio 0
scalar FogSequentialForward.fog[1].server[0] totalJobs 13958
scalar FogSequentialForward.fog[1].server[0] droppedJobsQueue 634
scalar FogSequentialForward.fog[1].server[0] droppedJobsTimout 0
scalar FogSequentialForward.fog[1].server[0] droppedJobsSLA 8143
scalar FogSequentialForward.fog[1].server[0] droppedJobsTotal 8777
scalar FogSequentialForward.fog[2].dispatcher localJobs 13981
scalar FogSequentialForward.fog[2].dispatcher internalJobs 14339
scalar FogSequentialForward.fog[2].dispatcher externalJobs 3969653
scalar FogSequentialForward.fog[2].dispatcher remoteJobs 3969585
scalar FogSequentialForward.fog[2].dispatcher probeQueries 0
scalar FogSequentialForward.fog[2].dispatcher probeAnswers 0
scalar FogSequentialForward.fog[2].dispatcher droppedJobsSLA 426
scalar FogSequentialForward.fog[2].dispatcher jobs_class_1 3983992
scalar FogSequentialForward.fog[2].dispatcher remoteJobs_class_1 3969585
scalar FogSequentialForward.fog[2].dispatcher localJobs_class_1 13981
scalar FogSequentialForward.fog[2].dispatcher droppedJobsSLA_class_1 426
scalar FogSequentialForward.fog[2].server[0] rho 0.99979436397552
scalar FogSequentialForward.fog[2].server[0] congestionRatio 0
scalar FogSequentialForward.fog[2].server[0] totalJobs 13981
scalar FogSequentialForward.fog[2].server[0] droppedJobsQueue 635
scalar FogSequentialForward.fog[2].server[0] droppedJobsTimout 0
scalar FogSequentialForward.fog[2].server[0] droppedJobsSLA 8172
scalar FogSequentialForward.fog[2].server[0] droppedJobsTotal 8807
scalar FogSequentialForward.fog[3].dispatcher localJobs 14011
scalar FogSequentialForward.fog[3].dispatcher internalJobs 14331
scalar FogSequentialForward.fog[3].dispatcher externalJobs 3976733
scalar FogSequentialForward.fog[3].dispatcher remoteJobs 3976607
scalar FogSequentialForward.fog[3].dispatcher probeQueries 0
scalar FogSequentialForward.fog[3].dispatcher probeAnswers 0
scalar FogSequentialForward.fog[3].dispatcher droppedJobsSLA 446
scalar FogSequentialForward.fog[3].dispatcher jobs_class_1 3991064
scalar FogSequentialForward.fog[3].dispatcher remoteJobs_class_1 3976607
scalar FogSequentialForward.fog[3].dispatcher localJobs_class_1 14011
scalar FogSequentialForward.fog[3].dispatcher droppedJobsSLA_class_1 446
scalar FogSequentialForward.fog[3].server[0] rho 0.99983656406403
scalar FogSequentialForward.fog[3].server[0] congestionRatio 0
scalar FogSequentialForward.fog[3].server[0] totalJobs 14011
scalar FogSequentialForward.fog[3].server[0] droppedJobsQueue 636
scalar FogSequentialForward.fog[3].server[0] droppedJobsTimout 0
scalar FogSequentialForward.fog[3].server[0] droppedJobsSLA 8209
scalar FogSequentialForward.fog[3].server[0] droppedJobsTotal 8845
scalar FogSequentialForward.fog[4].dispatcher localJobs 13922
scalar FogSequentialForward.fog[4].dispatcher internalJobs 14313
scalar FogSequentialForward.fog[4].dispatcher externalJobs 3970662
scalar FogSequentialForward.fog[4].dispatcher remoteJobs 3970600
scalar FogSequentialForward.fog[4].dispatcher probeQueries 0
scalar FogSequentialForward.fog[4].dispatcher probeAnswers 0
scalar FogSequentialForward.fog[4].dispatcher droppedJobsSLA 453
scalar FogSequentialForward.fog[4].dispatcher jobs_class_1 3984975
scalar FogSequentialForward.fog[4].dispatcher remoteJobs_class_1 3970600
scalar FogSequentialForward.fog[4].dispatcher localJobs_class_1 13922
scalar FogSequentialForward.fog[4].dispatcher droppedJobsSLA_class_1 453
scalar FogSequentialForward.fog[4].server[0] rho 0.99981665611267
scalar FogSequentialForward.fog[4].server[0] congestionRatio 0
scalar FogSequentialForward.fog[4].server[0] totalJobs 13922
scalar FogSequentialForward.fog[4].server[0] droppedJobsQueue 632
scalar FogSequentialForward.fog[4].server[0] droppedJobsTimout 0
scalar FogSequentialForward.fog[4].server[0] droppedJobsSLA 8171
scalar FogSequentialForward.fog[4].server[0] droppedJobsTotal 8803
scalar FogSequentialForward.fog[5].dispatcher localJobs 13938
scalar FogSequentialForward.fog[5].dispatcher internalJobs 14262
scalar FogSequentialForward.fog[5].dispatcher externalJobs 3975740
scalar FogSequentialForward.fog[5].dispatcher remoteJobs 3975614
scalar FogSequentialForward.fog[5].dispatcher probeQueries 0
scalar FogSequentialForward.fog[5].dispatcher probeAnswers 0
scalar FogSequentialForward.fog[5].dispatcher droppedJobsSLA 450
scalar FogSequentialForward.fog[5].dispatcher jobs_class_1 3990002
scalar FogSequentialForward.fog[5].dispatcher remoteJobs_class_1 3975614
scalar FogSequentialForward.fog[5].dispatcher localJobs_class_1 13938
scalar FogSequentialForward.fog[5].dispatcher droppedJobsSLA_class_1 450
scalar FogSequentialForward.fog[5].server[0] rho 0.99983072280884
scalar FogSequentialForward.fog[5].server[0] congestionRatio 0
scalar FogSequentialForward.fog[5].server[0] totalJobs 13938
scalar FogSequentialForward.fog[5].server[0] droppedJobsQueue 633
scalar FogSequentialForward.fog[5].server[0] droppedJobsTimout 0
scalar FogSequentialForward.fog[5].server[0] droppedJobsSLA 8163
scalar FogSequentialForward.fog[5].server[0] droppedJobsTotal 8796
scalar FogSequentialForward.fog[6].dispatcher localJobs 13957
scalar FogSequentialForward.fog[6].dispatcher internalJobs 14357
scalar FogSequentialForward.fog[6].dispatcher externalJobs 3969999
scalar FogSequentialForward.fog[6].dispatcher remoteJobs 3969995
scalar FogSequentialForward.fog[6].dispatcher probeQueries 0
scalar FogSequentialForward.fog[6].dispatcher probeAnswers 0
scalar FogSequentialForward.fog[6].dispatcher droppedJobsSLA 404
scalar FogSequentialForward.fog[6].dispatcher jobs_class_1 3984356
scalar FogSequentialForward.fog[6].dispatcher remoteJobs_class_1 3969995
scalar FogSequentialForward.fog[6].dispatcher localJobs_class_1 13957
scalar FogSequentialForward.fog[6].dispatcher droppedJobsSLA_class_1 404
scalar FogSequentialForward.fog[6].server[0] rho 0.99983012676239
scalar FogSequentialForward.fog[6].server[0] congestionRatio 0
scalar FogSequentialForward.fog[6].server[0] totalJobs 13957
scalar FogSequentialForward.fog[6].server[0] droppedJobsQueue 634
scalar FogSequentialForward.fog[6].server[0] droppedJobsTimout 0
scalar FogSequentialForward.fog[6].server[0] droppedJobsSLA 8141
scalar FogSequentialForward.fog[6].server[0] droppedJobsTotal 8775
scalar FogSequentialForward.fog[7].dispatcher localJobs 13986
scalar FogSequentialForward.fog[7].dispatcher internalJobs 14345
scalar FogSequentialForward.fog[7].dispatcher externalJobs 3974348
scalar FogSequentialForward.fog[7].dispatcher remoteJobs 3974243
scalar FogSequentialForward.fog[7].dispatcher probeQueries 0
scalar FogSequentialForward.fog[7].dispatcher probeAnswers 0
scalar FogSequentialForward.fog[7].dispatcher droppedJobsSLA 464
scalar FogSequentialForward.fog[7].dispatcher jobs_class_1 3988693
scalar FogSequentialForward.fog[7].dispatcher remoteJobs_class_1 3974243
scalar FogSequentialForward.fog[7].dispatcher localJobs_class_1 13986
scalar FogSequentialForward.fog[7].dispatcher droppedJobsSLA_class_1 464
scalar FogSequentialForward.fog[7].server[0] rho 0.99983286857605
scalar FogSequentialForward.fog[7].server[0] congestionRatio 0
scalar FogSequentialForward.fog[7].server[0] totalJobs 13986
scalar FogSequentialForward.fog[7].server[0] droppedJobsQueue 635
scalar FogSequentialForward.fog[7].server[0] droppedJobsTimout 0
scalar FogSequentialForward.fog[7].server[0] droppedJobsSLA 8174
scalar FogSequentialForward.fog[7].server[0] droppedJobsTotal 8809
scalar FogSequentialForward.fog[8].dispatcher localJobs 13992
scalar FogSequentialForward.fog[8].dispatcher internalJobs 14652
scalar FogSequentialForward.fog[8].dispatcher externalJobs 3973200
scalar FogSequentialForward.fog[8].dispatcher remoteJobs 3973467
scalar FogSequentialForward.fog[8].dispatcher probeQueries 0
scalar FogSequentialForward.fog[8].dispatcher probeAnswers 0
scalar FogSequentialForward.fog[8].dispatcher droppedJobsSLA 393
scalar FogSequentialForward.fog[8].dispatcher jobs_class_1 3987852
scalar FogSequentialForward.fog[8].dispatcher remoteJobs_class_1 3973467
scalar FogSequentialForward.fog[8].dispatcher localJobs_class_1 13992
scalar FogSequentialForward.fog[8].dispatcher droppedJobsSLA_class_1 393
scalar FogSequentialForward.fog[8].server[0] rho 0.9998237490654
scalar FogSequentialForward.fog[8].server[0] congestionRatio 0
scalar FogSequentialForward.fog[8].server[0] totalJobs 13992
scalar FogSequentialForward.fog[8].server[0] droppedJobsQueue 635
scalar FogSequentialForward.fog[8].server[0] droppedJobsTimout 0
scalar FogSequentialForward.fog[8].server[0] droppedJobsSLA 8193
scalar FogSequentialForward.fog[8].server[0] droppedJobsTotal 8828
scalar FogSequentialForward.fog[9].dispatcher localJobs 13924
scalar FogSequentialForward.fog[9].dispatcher internalJobs 14358
scalar FogSequentialForward.fog[9].dispatcher externalJobs 3974046
scalar FogSequentialForward.fog[9].dispatcher remoteJobs 3973997
scalar FogSequentialForward.fog[9].dispatcher probeQueries 0
scalar FogSequentialForward.fog[9].dispatcher probeAnswers 0
scalar FogSequentialForward.fog[9].dispatcher droppedJobsSLA 483
scalar FogSequentialForward.fog[9].dispatcher jobs_class_1 3988404
scalar FogSequentialForward.fog[9].dispatcher remoteJobs_class_1 3973997
scalar FogSequentialForward.fog[9].dispatcher localJobs_class_1 13924
scalar FogSequentialForward.fog[9].dispatcher droppedJobsSLA_class_1 483
scalar FogSequentialForward.fog[9].server[0] rho 0.99982053041458
scalar FogSequentialForward.fog[9].server[0] congestionRatio 0
scalar FogSequentialForward.fog[9].server[0] totalJobs 13924
scalar FogSequentialForward.fog[9].server[0] droppedJobsQueue 632
scalar FogSequentialForward.fog[9].server[0] droppedJobsTimout 0
scalar FogSequentialForward.fog[9].server[0] droppedJobsSLA 8155
scalar FogSequentialForward.fog[9].server[0] droppedJobsTotal 8787
scalar FogSequentialForward.fog[10].dispatcher localJobs 13945
scalar FogSequentialForward.fog[10].dispatcher internalJobs 14354
scalar FogSequentialForward.fog[10].dispatcher externalJobs 3973756
scalar FogSequentialForward.fog[10].dispatcher remoteJobs 3973796
scalar FogSequentialForward.fog[10].dispatcher probeQueries 0
scalar FogSequentialForward.fog[10].dispatcher probeAnswers 0
scalar FogSequentialForward.fog[10].dispatcher droppedJobsSLA 369
scalar FogSequentialForward.fog[10].dispatcher jobs_class_1 3988110
scalar FogSequentialForward.fog[10].dispatcher remoteJobs_class_1 3973796
scalar FogSequentialForward.fog[10].dispatcher localJobs_class_1 13945
scalar FogSequentialForward.fog[10].dispatcher droppedJobsSLA_class_1 369
scalar FogSequentialForward.fog[10].server[0] rho 0.99982440471649
scalar FogSequentialForward.fog[10].server[0] congestionRatio 0
scalar FogSequentialForward.fog[10].server[0] totalJobs 13945
scalar FogSequentialForward.fog[10].server[0] droppedJobsQueue 633
scalar FogSequentialForward.fog[10].server[0] droppedJobsTimout 0
scalar FogSequentialForward.fog[10].server[0] droppedJobsSLA 8137
scalar FogSequentialForward.fog[10].server[0] droppedJobsTotal 8770
scalar FogSequentialForward.fog[11].dispatcher localJobs 13941
scalar FogSequentialForward.fog[11].dispatcher internalJobs 14465
scalar FogSequentialForward.fog[11].dispatcher externalJobs 3976689
scalar FogSequentialForward.fog[11].dispatcher remoteJobs 3976769
scalar FogSequentialForward.fog[11].dispatcher probeQueries 0
scalar FogSequentialForward.fog[11].dispatcher probeAnswers 0
scalar FogSequentialForward.fog[11].dispatcher droppedJobsSLA 444
scalar FogSequentialForward.fog[11].dispatcher jobs_class_1 3991154
scalar FogSequentialForward.fog[11].dispatcher remoteJobs_class_1 3976769
scalar FogSequentialForward.fog[11].dispatcher localJobs_class_1 13941
scalar FogSequentialForward.fog[11].dispatcher droppedJobsSLA_class_1 444
scalar FogSequentialForward.fog[11].server[0] rho 0.99984818696976
scalar FogSequentialForward.fog[11].server[0] congestionRatio 0
scalar FogSequentialForward.fog[11].server[0] totalJobs 13941
scalar FogSequentialForward.fog[11].server[0] droppedJobsQueue 633
scalar FogSequentialForward.fog[11].server[0] droppedJobsTimout 0
scalar FogSequentialForward.fog[11].server[0] droppedJobsSLA 8198
scalar FogSequentialForward.fog[11].server[0] droppedJobsTotal 8831
scalar FogSequentialForward.fog[12].dispatcher localJobs 13982
scalar FogSequentialForward.fog[12].dispatcher internalJobs 14433
scalar FogSequentialForward.fog[12].dispatcher externalJobs 3976061
scalar FogSequentialForward.fog[12].dispatcher remoteJobs 3976092
scalar FogSequentialForward.fog[12].dispatcher probeQueries 0
scalar FogSequentialForward.fog[12].dispatcher probeAnswers 0
scalar FogSequentialForward.fog[12].dispatcher droppedJobsSLA 420
scalar FogSequentialForward.fog[12].dispatcher jobs_class_1 3990494
scalar FogSequentialForward.fog[12].dispatcher remoteJobs_class_1 3976092
scalar FogSequentialForward.fog[12].dispatcher localJobs_class_1 13982
scalar FogSequentialForward.fog[12].dispatcher droppedJobsSLA_class_1 420
scalar FogSequentialForward.fog[12].server[0] rho 0.99981242418289
scalar FogSequentialForward.fog[12].server[0] congestionRatio 0
scalar FogSequentialForward.fog[12].server[0] totalJobs 13982
scalar FogSequentialForward.fog[12].server[0] droppedJobsQueue 635
scalar FogSequentialForward.fog[12].server[0] droppedJobsTimout 0
scalar FogSequentialForward.fog[12].server[0] droppedJobsSLA 8190
scalar FogSequentialForward.fog[12].server[0] droppedJobsTotal 8825
scalar FogSequentialForward.fog[13].dispatcher localJobs 14034
scalar FogSequentialForward.fog[13].dispatcher internalJobs 14460
scalar FogSequentialForward.fog[13].dispatcher externalJobs 3972049
scalar FogSequentialForward.fog[13].dispatcher remoteJobs 3972100
scalar FogSequentialForward.fog[13].dispatcher probeQueries 0
scalar FogSequentialForward.fog[13].dispatcher probeAnswers 0
scalar FogSequentialForward.fog[13].dispatcher droppedJobsSLA 375
scalar FogSequentialForward.fog[13].dispatcher jobs_class_1 3986509
scalar FogSequentialForward.fog[13].dispatcher remoteJobs_class_1 3972100
scalar FogSequentialForward.fog[13].dispatcher localJobs_class_1 14034
scalar FogSequentialForward.fog[13].dispatcher droppedJobsSLA_class_1 375
scalar FogSequentialForward.fog[13].server[0] rho 0.99978959560394
scalar FogSequentialForward.fog[13].server[0] congestionRatio 0
scalar FogSequentialForward.fog[13].server[0] totalJobs 14034
scalar FogSequentialForward.fog[13].server[0] droppedJobsQueue 637
scalar FogSequentialForward.fog[13].server[0] droppedJobsTimout 0
scalar FogSequentialForward.fog[13].server[0] droppedJobsSLA 8233
scalar FogSequentialForward.fog[13].server[0] droppedJobsTotal 8870
scalar FogSequentialForward.fog[14].dispatcher localJobs 13967
scalar FogSequentialForward.fog[14].dispatcher internalJobs 14345
scalar FogSequentialForward.fog[14].dispatcher externalJobs 3974195
scalar FogSequentialForward.fog[14].dispatcher remoteJobs 3974147
scalar FogSequentialForward.fog[14].dispatcher probeQueries 0
scalar FogSequentialForward.fog[14].dispatcher probeAnswers 0
scalar FogSequentialForward.fog[14].dispatcher droppedJobsSLA 426
scalar FogSequentialForward.fog[14].dispatcher jobs_class_1 3988540
scalar FogSequentialForward.fog[14].dispatcher remoteJobs_class_1 3974147
scalar FogSequentialForward.fog[14].dispatcher localJobs_class_1 13967
scalar FogSequentialForward.fog[14].dispatcher droppedJobsSLA_class_1 426
scalar FogSequentialForward.fog[14].server[0] rho 0.99979835748672
scalar FogSequentialForward.fog[14].server[0] congestionRatio 0
scalar FogSequentialForward.fog[14].server[0] totalJobs 13967
scalar FogSequentialForward.fog[14].server[0] droppedJobsQueue 634
scalar FogSequentialForward.fog[14].server[0] droppedJobsTimout 0
scalar FogSequentialForward.fog[14].server[0] droppedJobsSLA 8187
scalar FogSequentialForward.fog[14].server[0] droppedJobsTotal 8821
scalar FogSequentialForward.fog[15].dispatcher localJobs 13964
scalar FogSequentialForward.fog[15].dispatcher internalJobs 14376
scalar FogSequentialForward.fog[15].dispatcher externalJobs 3970539
scalar FogSequentialForward.fog[15].dispatcher remoteJobs 3970497
scalar FogSequentialForward.fog[15].dispatcher probeQueries 0
scalar FogSequentialForward.fog[15].dispatcher probeAnswers 0
scalar FogSequentialForward.fog[15].dispatcher droppedJobsSLA 454
scalar FogSequentialForward.fog[15].dispatcher jobs_class_1 3984915
scalar FogSequentialForward.fog[15].dispatcher remoteJobs_class_1 3970497
scalar FogSequentialForward.fog[15].dispatcher localJobs_class_1 13964
scalar FogSequentialForward.fog[15].dispatcher droppedJobsSLA_class_1 454
scalar FogSequentialForward.fog[15].server[0] rho 0.99983072280884
scalar FogSequentialForward.fog[15].server[0] congestionRatio 0
scalar FogSequentialForward.fog[15].server[0] totalJobs 13964
scalar FogSequentialForward.fog[15].server[0] droppedJobsQueue 634
scalar FogSequentialForward.fog[15].server[0] droppedJobsTimout 0
scalar FogSequentialForward.fog[15].server[0] droppedJobsSLA 8140
scalar FogSequentialForward.fog[15].server[0] droppedJobsTotal 8774
scalar FogSequentialForward.fog[16].dispatcher localJobs 13969
scalar FogSequentialForward.fog[16].dispatcher internalJobs 14277
scalar FogSequentialForward.fog[16].dispatcher externalJobs 3973389
scalar FogSequentialForward.fog[16].dispatcher remoteJobs 3973253
scalar FogSequentialForward.fog[16].dispatcher probeQueries 0
scalar FogSequentialForward.fog[16].dispatcher probeAnswers 0
scalar FogSequentialForward.fog[16].dispatcher droppedJobsSLA 444
scalar FogSequentialForward.fog[16].dispatcher jobs_class_1 3987666
scalar FogSequentialForward.fog[16].dispatcher remoteJobs_class_1 3973253
scalar FogSequentialForward.fog[16].dispatcher localJobs_class_1 13969
scalar FogSequentialForward.fog[16].dispatcher droppedJobsSLA_class_1 444
scalar FogSequentialForward.fog[16].server[0] rho 0.99976569414139
scalar FogSequentialForward.fog[16].server[0] congestionRatio 0
scalar FogSequentialForward.fog[16].server[0] totalJobs 13969
scalar FogSequentialForward.fog[16].server[0] droppedJobsQueue 634
scalar FogSequentialForward.fog[16].server[0] droppedJobsTimout 0
scalar FogSequentialForward.fog[16].server[0] droppedJobsSLA 8137
scalar FogSequentialForward.fog[16].server[0] droppedJobsTotal 8771
scalar FogSequentialForward.fog[17].dispatcher localJobs 13981
scalar FogSequentialForward.fog[17].dispatcher internalJobs 14499
scalar FogSequentialForward.fog[17].dispatcher externalJobs 3976752
scalar FogSequentialForward.fog[17].dispatcher remoteJobs 3976801
scalar FogSequentialForward.fog[17].dispatcher probeQueries 0
scalar FogSequentialForward.fog[17].dispatcher probeAnswers 0
scalar FogSequentialForward.fog[17].dispatcher droppedJobsSLA 469
scalar FogSequentialForward.fog[17].dispatcher jobs_class_1 3991251
scalar FogSequentialForward.fog[17].dispatcher remoteJobs_class_1 3976801
scalar FogSequentialForward.fog[17].dispatcher localJobs_class_1 13981
scalar FogSequentialForward.fog[17].dispatcher droppedJobsSLA_class_1 469
scalar FogSequentialForward.fog[17].server[0] rho 0.99977976083755
scalar FogSequentialForward.fog[17].server[0] congestionRatio 0
scalar FogSequentialForward.fog[17].server[0] totalJobs 13981
scalar FogSequentialForward.fog[17].server[0] droppedJobsQueue 635
scalar FogSequentialForward.fog[17].server[0] droppedJobsTimout 0
scalar FogSequentialForward.fog[17].server[0] droppedJobsSLA 8208
scalar FogSequentialForward.fog[17].server[0] droppedJobsTotal 8843
scalar FogSequentialForward.fog[18].dispatcher localJobs 13920
scalar FogSequentialForward.fog[18].dispatcher internalJobs 14675
scalar FogSequentialForward.fog[18].dispatcher externalJobs 3974138
scalar FogSequentialForward.fog[18].dispatcher remoteJobs 3974473
scalar FogSequentialForward.fog[18].dispatcher probeQueries 0
scalar FogSequentialForward.fog[18].dispatcher probeAnswers 0
scalar FogSequentialForward.fog[18].dispatcher droppedJobsSLA 420
scalar FogSequentialForward.fog[18].dispatcher jobs_class_1 3988813
scalar FogSequentialForward.fog[18].dispatcher remoteJobs_class_1 3974473
scalar FogSequentialForward.fog[18].dispatcher localJobs_class_1 13920
scalar FogSequentialForward.fog[18].dispatcher droppedJobsSLA_class_1 420
scalar FogSequentialForward.fog[18].server[0] rho 0.99984157085419
scalar FogSequentialForward.fog[18].server[0] congestionRatio 0
scalar FogSequentialForward.fog[18].server[0] totalJobs 13920
scalar FogSequentialForward.fog[18].server[0] droppedJobsQueue 632
scalar FogSequentialForward.fog[18].server[0] droppedJobsTimout 0
scalar FogSequentialForward.fog[18].server[0] droppedJobsSLA 8144
scalar FogSequentialForward.fog[18].server[0] droppedJobsTotal 8776
scalar FogSequentialForward.fog[19].dispatcher localJobs 13936
scalar FogSequentialForward.fog[19].dispatcher internalJobs 14503
scalar FogSequentialForward.fog[19].dispatcher externalJobs 3968076
scalar FogSequentialForward.fog[19].dispatcher remoteJobs 3968214
scalar FogSequentialForward.fog[19].dispatcher probeQueries 0
scalar FogSequentialForward.fog[19].dispatcher probeAnswers 0
scalar FogSequentialForward.fog[19].dispatcher droppedJobsSLA 429
scalar FogSequentialForward.fog[19].dispatcher jobs_class_1 3982579
scalar FogSequentialForward.fog[19].dispatcher remoteJobs_class_1 3968214
scalar FogSequentialForward.fog[19].dispatcher localJobs_class_1 13936
scalar FogSequentialForward.fog[19].dispatcher droppedJobsSLA_class_1 429
scalar FogSequentialForward.fog[19].server[0] rho 0.99980843067169
scalar FogSequentialForward.fog[19].server[0] congestionRatio 0
scalar FogSequentialForward.fog[19].server[0] totalJobs 13936
scalar FogSequentialForward.fog[19].server[0] droppedJobsQueue 633
scalar FogSequentialForward.fog[19].server[0] droppedJobsTimout 0
scalar FogSequentialForward.fog[19].server[0] droppedJobsSLA 8210
scalar FogSequentialForward.fog[19].server[0] droppedJobsTotal 8843
scalar FogSequentialForward.fog[20].dispatcher localJobs 13980
scalar FogSequentialForward.fog[20].dispatcher internalJobs 14524
scalar FogSequentialForward.fog[20].dispatcher externalJobs 3975827
scalar FogSequentialForward.fog[20].dispatcher remoteJobs 3975930
scalar FogSequentialForward.fog[20].dispatcher probeQueries 0
scalar FogSequentialForward.fog[20].dispatcher probeAnswers 0
scalar FogSequentialForward.fog[20].dispatcher droppedJobsSLA 441
scalar FogSequentialForward.fog[20].dispatcher jobs_class_1 3990351
scalar FogSequentialForward.fog[20].dispatcher remoteJobs_class_1 3975930
scalar FogSequentialForward.fog[20].dispatcher localJobs_class_1 13980
scalar FogSequentialForward.fog[20].dispatcher droppedJobsSLA_class_1 441
scalar FogSequentialForward.fog[20].server[0] rho 0.99983316659927
scalar FogSequentialForward.fog[20].server[0] congestionRatio 0
scalar FogSequentialForward.fog[20].server[0] totalJobs 13980
scalar FogSequentialForward.fog[20].server[0] droppedJobsQueue 635
scalar FogSequentialForward.fog[20].server[0] droppedJobsTimout 0
scalar FogSequentialForward.fog[20].server[0] droppedJobsSLA 8200
scalar FogSequentialForward.fog[20].server[0] droppedJobsTotal 8835
scalar FogSequentialForward.fog[21].dispatcher localJobs 13948
scalar FogSequentialForward.fog[21].dispatcher internalJobs 14433
scalar FogSequentialForward.fog[21].dispatcher externalJobs 3973823
scalar FogSequentialForward.fog[21].dispatcher remoteJobs 3973886
scalar FogSequentialForward.fog[21].dispatcher probeQueries 0
scalar FogSequentialForward.fog[21].dispatcher probeAnswers 0
scalar FogSequentialForward.fog[21].dispatcher droppedJobsSLA 422
scalar FogSequentialForward.fog[21].dispatcher jobs_class_1 3988256
scalar FogSequentialForward.fog[21].dispatcher remoteJobs_class_1 3973886
scalar FogSequentialForward.fog[21].dispatcher localJobs_class_1 13948
scalar FogSequentialForward.fog[21].dispatcher droppedJobsSLA_class_1 422
scalar FogSequentialForward.fog[21].server[0] rho 0.99979257583618
scalar FogSequentialForward.fog[21].server[0] congestionRatio 0
scalar FogSequentialForward.fog[21].server[0] totalJobs 13948
scalar FogSequentialForward.fog[21].server[0] droppedJobsQueue 633
scalar FogSequentialForward.fog[21].server[0] droppedJobsTimout 0
scalar FogSequentialForward.fog[21].server[0] droppedJobsSLA 8185
scalar FogSequentialForward.fog[21].server[0] droppedJobsTotal 8818
scalar FogSequentialForward.fog[22].dispatcher localJobs 13969
scalar FogSequentialForward.fog[22].dispatcher internalJobs 14410
scalar FogSequentialForward.fog[22].dispatcher externalJobs 3970980
scalar FogSequentialForward.fog[22].dispatcher remoteJobs 3970998
scalar FogSequentialForward.fog[22].dispatcher probeQueries 0
scalar FogSequentialForward.fog[22].dispatcher probeAnswers 0
scalar FogSequentialForward.fog[22].dispatcher droppedJobsSLA 423
scalar FogSequentialForward.fog[22].dispatcher jobs_class_1 3985390
scalar FogSequentialForward.fog[22].dispatcher remoteJobs_class_1 3970998
scalar FogSequentialForward.fog[22].dispatcher localJobs_class_1 13969
scalar FogSequentialForward.fog[22].dispatcher droppedJobsSLA_class_1 423
scalar FogSequentialForward.fog[22].server[0] rho 0.99982345104218
scalar FogSequentialForward.fog[22].server[0] congestionRatio 0
scalar FogSequentialForward.fog[22].server[0] totalJobs 13969
scalar FogSequentialForward.fog[22].server[0] droppedJobsQueue 634
scalar FogSequentialForward.fog[22].server[0] droppedJobsTimout 0
scalar FogSequentialForward.fog[22].server[0] droppedJobsSLA 8193
scalar FogSequentialForward.fog[22].server[0] droppedJobsTotal 8827
scalar FogSequentialForward.fog[23].dispatcher localJobs 13934
scalar FogSequentialForward.fog[23].dispatcher internalJobs 14354
scalar FogSequentialForward.fog[23].dispatcher externalJobs 3974990
scalar FogSequentialForward.fog[23].dispatcher remoteJobs 3974972
scalar FogSequentialForward.fog[23].dispatcher probeQueries 0
scalar FogSequentialForward.fog[23].dispatcher probeAnswers 0
scalar FogSequentialForward.fog[23].dispatcher droppedJobsSLA 438
scalar FogSequentialForward.fog[23].dispatcher jobs_class_1 3989344
scalar FogSequentialForward.fog[23].dispatcher remoteJobs_class_1 3974972
scalar FogSequentialForward.fog[23].dispatcher localJobs_class_1 13934
scalar FogSequentialForward.fog[23].dispatcher droppedJobsSLA_class_1 438
scalar FogSequentialForward.fog[23].server[0] rho 0.99981838464737
scalar FogSequentialForward.fog[23].server[0] congestionRatio 0
scalar FogSequentialForward.fog[23].server[0] totalJobs 13934
scalar FogSequentialForward.fog[23].server[0] droppedJobsQueue 633
scalar FogSequentialForward.fog[23].server[0] droppedJobsTimout 0
scalar FogSequentialForward.fog[23].server[0] droppedJobsSLA 8176
scalar FogSequentialForward.fog[23].server[0] droppedJobsTotal 8809
scalar FogSequentialForward.fog[24].dispatcher localJobs 13966
scalar FogSequentialForward.fog[24].dispatcher internalJobs 14486
scalar FogSequentialForward.fog[24].dispatcher externalJobs 3971216
scalar FogSequentialForward.fog[24].dispatcher remoteJobs 3971293
scalar FogSequentialForward.fog[24].dispatcher probeQueries 0
scalar FogSequentialForward.fog[24].dispatcher probeAnswers 0
scalar FogSequentialForward.fog[24].dispatcher droppedJobsSLA 443
scalar FogSequentialForward.fog[24].dispatcher jobs_class_1 3985702
scalar FogSequentialForward.fog[24].dispatcher remoteJobs_class_1 3971293
scalar FogSequentialForward.fog[24].dispatcher localJobs_class_1 13966
scalar FogSequentialForward.fog[24].dispatcher droppedJobsSLA_class_1 443
scalar FogSequentialForward.fog[24].server[0] rho 0.99983459711075
scalar FogSequentialForward.fog[24].server[0] congestionRatio 0
scalar FogSequentialForward.fog[24].server[0] totalJobs 13966
scalar FogSequentialForward.fog[24].server[0] droppedJobsQueue 634
scalar FogSequentialForward.fog[24].server[0] droppedJobsTimout 0
scalar FogSequentialForward.fog[24].server[0] droppedJobsSLA 8160
scalar FogSequentialForward.fog[24].server[0] droppedJobsTotal 8794
scalar FogSequentialForward.fog[25].dispatcher localJobs 13899
scalar FogSequentialForward.fog[25].dispatcher internalJobs 14509
scalar FogSequentialForward.fog[25].dispatcher externalJobs 3972211
scalar FogSequentialForward.fog[25].dispatcher remoteJobs 3972401
scalar FogSequentialForward.fog[25].dispatcher probeQueries 0
scalar FogSequentialForward.fog[25].dispatcher probeAnswers 0
scalar FogSequentialForward.fog[25].dispatcher droppedJobsSLA 420
scalar FogSequentialForward.fog[25].dispatcher jobs_class_1 3986720
scalar FogSequentialForward.fog[25].dispatcher remoteJobs_class_1 3972401
scalar FogSequentialForward.fog[25].dispatcher localJobs_class_1 13899
scalar FogSequentialForward.fog[25].dispatcher droppedJobsSLA_class_1 420
scalar FogSequentialForward.fog[25].server[0] rho 0.99983948469162
scalar FogSequentialForward.fog[25].server[0] congestionRatio 0
scalar FogSequentialForward.fog[25].server[0] totalJobs 13899
scalar FogSequentialForward.fog[25].server[0] droppedJobsQueue 631
scalar FogSequentialForward.fog[25].server[0] droppedJobsTimout 0
scalar FogSequentialForward.fog[25].server[0] droppedJobsSLA 8123
scalar FogSequentialForward.fog[25].server[0] droppedJobsTotal 8754
scalar FogSequentialForward.fog[26].dispatcher localJobs 14008
scalar FogSequentialForward.fog[26].dispatcher internalJobs 14567
scalar FogSequentialForward.fog[26].dispatcher externalJobs 3972620
scalar FogSequentialForward.fog[26].dispatcher remoteJobs 3972765
scalar FogSequentialForward.fog[26].dispatcher probeQueries 0
scalar FogSequentialForward.fog[26].dispatcher probeAnswers 0
scalar FogSequentialForward.fog[26].dispatcher droppedJobsSLA 414
scalar FogSequentialForward.fog[26].dispatcher jobs_class_1 3987187
scalar FogSequentialForward.fog[26].dispatcher remoteJobs_class_1 3972765
scalar FogSequentialForward.fog[26].dispatcher localJobs_class_1 14008
scalar FogSequentialForward.fog[26].dispatcher droppedJobsSLA_class_1 414
scalar FogSequentialForward.fog[26].server[0] rho 0.99984490871429
scalar FogSequentialForward.fog[26].server[0] congestionRatio 0
scalar FogSequentialForward.fog[26].server[0] totalJobs 14008
scalar FogSequentialForward.fog[26].server[0] droppedJobsQueue 636
scalar FogSequentialForward.fog[26].server[0] droppedJobsTimout 0
scalar FogSequentialForward.fog[26].server[0] droppedJobsSLA 8241
scalar FogSequentialForward.fog[26].server[0] droppedJobsTotal 8877
scalar FogSequentialForward.fog[27].dispatcher localJobs 13982
scalar FogSequentialForward.fog[27].dispatcher internalJobs 14379
scalar FogSequentialForward.fog[27].dispatcher externalJobs 3973793
scalar FogSequentialForward.fog[27].dispatcher remoteJobs 3973738
scalar FogSequentialForward.fog[27].dispatcher probeQueries 0
scalar FogSequentialForward.fog[27].dispatcher probeAnswers 0
scalar FogSequentialForward.fog[27].dispatcher droppedJobsSLA 452
scalar FogSequentialForward.fog[27].dispatcher jobs_class_1 3988172
scalar FogSequentialForward.fog[27].dispatcher remoteJobs_class_1 3973738
scalar FogSequentialForward.fog[27].dispatcher localJobs_class_1 13982
scalar FogSequentialForward.fog[27].dispatcher droppedJobsSLA_class_1 452
scalar FogSequentialForward.fog[27].server[0] rho 0.99983620643616
scalar FogSequentialForward.fog[27].server[0] congestionRatio 0
scalar FogSequentialForward.fog[27].server[0] totalJobs 13982
scalar FogSequentialForward.fog[27].server[0] droppedJobsQueue 635
scalar FogSequentialForward.fog[27].server[0] droppedJobsTimout 0
scalar FogSequentialForward.fog[27].server[0] droppedJobsSLA 8188
scalar FogSequentialForward.fog[27].server[0] droppedJobsTotal 8823
scalar FogSequentialForward.fog[28].dispatcher localJobs 13989
scalar FogSequentialForward.fog[28].dispatcher internalJobs 14446
scalar FogSequentialForward.fog[28].dispatcher externalJobs 3974068
scalar FogSequentialForward.fog[28].dispatcher remoteJobs 3974077
scalar FogSequentialForward.fog[28].dispatcher probeQueries 0
scalar FogSequentialForward.fog[28].dispatcher probeAnswers 0
scalar FogSequentialForward.fog[28].dispatcher droppedJobsSLA 448
scalar FogSequentialForward.fog[28].dispatcher jobs_class_1 3988514
scalar FogSequentialForward.fog[28].dispatcher remoteJobs_class_1 3974077
scalar FogSequentialForward.fog[28].dispatcher localJobs_class_1 13989
scalar FogSequentialForward.fog[28].dispatcher droppedJobsSLA_class_1 448
scalar FogSequentialForward.fog[28].server[0] rho 0.99982565641403
scalar FogSequentialForward.fog[28].server[0] congestionRatio 0
scalar FogSequentialForward.fog[28].server[0] totalJobs 13989
scalar FogSequentialForward.fog[28].server[0] droppedJobsQueue 635
scalar FogSequentialForward.fog[28].server[0] droppedJobsTimout 0
scalar FogSequentialForward.fog[28].server[0] droppedJobsSLA 8176
scalar FogSequentialForward.fog[28].server[0] droppedJobsTotal 8811
scalar FogSequentialForward.fog[29].dispatcher localJobs 13945
scalar FogSequentialForward.fog[29].dispatcher internalJobs 14274
scalar FogSequentialForward.fog[29].dispatcher externalJobs 3973443
scalar FogSequentialForward.fog[29].dispatcher remoteJobs 3973323
scalar FogSequentialForward.fog[29].dispatcher probeQueries 0
scalar FogSequentialForward.fog[29].dispatcher probeAnswers 0
scalar FogSequentialForward.fog[29].dispatcher droppedJobsSLA 449
scalar FogSequentialForward.fog[29].dispatcher jobs_class_1 3987717
scalar FogSequentialForward.fog[29].dispatcher remoteJobs_class_1 3973323
scalar FogSequentialForward.fog[29].dispatcher localJobs_class_1 13945
scalar FogSequentialForward.fog[29].dispatcher droppedJobsSLA_class_1 449
scalar FogSequentialForward.fog[29].server[0] rho 0.99979436397552
scalar FogSequentialForward.fog[29].server[0] congestionRatio 0
scalar FogSequentialForward.fog[29].server[0] totalJobs 13945
scalar FogSequentialForward.fog[29].server[0] droppedJobsQueue 633
scalar FogSequentialForward.fog[29].server[0] droppedJobsTimout 0
scalar FogSequentialForward.fog[29].server[0] droppedJobsSLA 8193
scalar FogSequentialForward.fog[29].server[0] droppedJobsTotal 8826
scalar FogSequentialForward.fog[30].dispatcher localJobs 13940
scalar FogSequentialForward.fog[30].dispatcher internalJobs 14632
scalar FogSequentialForward.fog[30].dispatcher externalJobs 3976300
scalar FogSequentialForward.fog[30].dispatcher remoteJobs 3976585
scalar FogSequentialForward.fog[30].dispatcher probeQueries 0
scalar FogSequentialForward.fog[30].dispatcher probeAnswers 0
scalar FogSequentialForward.fog[30].dispatcher droppedJobsSLA 407
scalar FogSequentialForward.fog[30].dispatcher jobs_class_1 3990932
scalar FogSequentialForward.fog[30].dispatcher remoteJobs_class_1 3976585
scalar FogSequentialForward.fog[30].dispatcher localJobs_class_1 13940
scalar FogSequentialForward.fog[30].dispatcher droppedJobsSLA_class_1 407
scalar FogSequentialForward.fog[30].server[0] rho 0.99983817338943
scalar FogSequentialForward.fog[30].server[0] congestionRatio 0
scalar FogSequentialForward.fog[30].server[0] totalJobs 13940
scalar FogSequentialForward.fog[30].server[0] droppedJobsQueue 633
scalar FogSequentialForward.fog[30].server[0] droppedJobsTimout 0
scalar FogSequentialForward.fog[30].server[0] droppedJobsSLA 8141
scalar FogSequentialForward.fog[30].server[0] droppedJobsTotal 8774
scalar FogSequentialForward.fog[31].dispatcher localJobs 13990
scalar FogSequentialForward.fog[31].dispatcher internalJobs 14463
scalar FogSequentialForward.fog[31].dispatcher externalJobs 3972275
scalar FogSequentialForward.fog[31].dispatcher remoteJobs 3972316
scalar FogSequentialForward.fog[31].dispatcher probeQueries 0
scalar FogSequentialForward.fog[31].dispatcher probeAnswers 0
scalar FogSequentialForward.fog[31].dispatcher droppedJobsSLA 432
scalar FogSequentialForward.fog[31].dispatcher jobs_class_1 3986738
scalar FogSequentialForward.fog[31].dispatcher remoteJobs_class_1 3972316
scalar FogSequentialForward.fog[31].dispatcher localJobs_class_1 13990
scalar FogSequentialForward.fog[31].dispatcher droppedJobsSLA_class_1 432
scalar FogSequentialForward.fog[31].server[0] rho 0.999815762043
scalar FogSequentialForward.fog[31].server[0] congestionRatio 0
scalar FogSequentialForward.fog[31].server[0] totalJobs 13990
scalar FogSequentialForward.fog[31].server[0] droppedJobsQueue 635
scalar FogSequentialForward.fog[31].server[0] droppedJobsTimout 0
scalar FogSequentialForward.fog[31].server[0] droppedJobsSLA 8226
scalar FogSequentialForward.fog[31].server[0] droppedJobsTotal 8861
scalar FogSequentialForward.fog[32].dispatcher localJobs 13962
scalar FogSequentialForward.fog[32].dispatcher internalJobs 14590
scalar FogSequentialForward.fog[32].dispatcher externalJobs 3971821
scalar FogSequentialForward.fog[32].dispatcher remoteJobs 3972022
scalar FogSequentialForward.fog[32].dispatcher probeQueries 0
scalar FogSequentialForward.fog[32].dispatcher probeAnswers 0
scalar FogSequentialForward.fog[32].dispatcher droppedJobsSLA 427
scalar FogSequentialForward.fog[32].dispatcher jobs_class_1 3986411
scalar FogSequentialForward.fog[32].dispatcher remoteJobs_class_1 3972022
scalar FogSequentialForward.fog[32].dispatcher localJobs_class_1 13962
scalar FogSequentialForward.fog[32].dispatcher droppedJobsSLA_class_1 427
scalar FogSequentialForward.fog[32].server[0] rho 0.99976980686188
scalar FogSequentialForward.fog[32].server[0] congestionRatio 0
scalar FogSequentialForward.fog[32].server[0] totalJobs 13962
scalar FogSequentialForward.fog[32].server[0] droppedJobsQueue 634
scalar FogSequentialForward.fog[32].server[0] droppedJobsTimout 0
scalar FogSequentialForward.fog[32].server[0] droppedJobsSLA 8170
scalar FogSequentialForward.fog[32].server[0] droppedJobsTotal 8804
scalar FogSequentialForward.fog[33].dispatcher localJobs 14031
scalar FogSequentialForward.fog[33].dispatcher internalJobs 14195
scalar FogSequentialForward.fog[33].dispatcher externalJobs 3972481
scalar FogSequentialForward.fog[33].dispatcher remoteJobs 3972200
scalar FogSequentialForward.fog[33].dispatcher probeQueries 0
scalar FogSequentialForward.fog[33].dispatcher probeAnswers 0
scalar FogSequentialForward.fog[33].dispatcher droppedJobsSLA 445
scalar FogSequentialForward.fog[33].dispatcher jobs_class_1 3986676
scalar FogSequentialForward.fog[33].dispatcher remoteJobs_class_1 3972200
scalar FogSequentialForward.fog[33].dispatcher localJobs_class_1 14031
scalar FogSequentialForward.fog[33].dispatcher droppedJobsSLA_class_1 445
scalar FogSequentialForward.fog[33].server[0] rho 0.99982869625092
scalar FogSequentialForward.fog[33].server[0] congestionRatio 0
scalar FogSequentialForward.fog[33].server[0] totalJobs 14031
scalar FogSequentialForward.fog[33].server[0] droppedJobsQueue 637
scalar FogSequentialForward.fog[33].server[0] droppedJobsTimout 0
scalar FogSequentialForward.fog[33].server[0] droppedJobsSLA 8212
scalar FogSequentialForward.fog[33].server[0] droppedJobsTotal 8849
scalar FogSequentialForward.fog[34].dispatcher localJobs 13961
scalar FogSequentialForward.fog[34].dispatcher internalJobs 14407
scalar FogSequentialForward.fog[34].dispatcher externalJobs 3971536
scalar FogSequentialForward.fog[34].dispatcher remoteJobs 3971557
scalar FogSequentialForward.fog[34].dispatcher probeQueries 0
scalar FogSequentialForward.fog[34].dispatcher probeAnswers 0
scalar FogSequentialForward.fog[34].dispatcher droppedJobsSLA 425
scalar FogSequentialForward.fog[34].dispatcher jobs_class_1 3985943
scalar FogSequentialForward.fog[34].dispatcher remoteJobs_class_1 3971557
scalar FogSequentialForward.fog[34].dispatcher localJobs_class_1 13961
scalar FogSequentialForward.fog[34].dispatcher droppedJobsSLA_class_1 425
scalar FogSequentialForward.fog[34].server[0] rho 0.99980854988098
scalar FogSequentialForward.fog[34].server[0] congestionRatio 0
scalar FogSequentialForward.fog[34].server[0] totalJobs 13961
scalar FogSequentialForward.fog[34].server[0] droppedJobsQueue 634
scalar FogSequentialForward.fog[34].server[0] droppedJobsTimout 0
scalar FogSequentialForward.fog[34].server[0] droppedJobsSLA 8176
scalar FogSequentialForward.fog[34].server[0] droppedJobsTotal 8810
scalar FogSequentialForward.fog[35].dispatcher localJobs 13979
scalar FogSequentialForward.fog[35].dispatcher internalJobs 14365
scalar FogSequentialForward.fog[35].dispatcher externalJobs 3970436
scalar FogSequentialForward.fog[35].dispatcher remoteJobs 3970423
scalar FogSequentialForward.fog[35].dispatcher probeQueries 0
scalar FogSequentialForward.fog[35].dispatcher probeAnswers 0
scalar FogSequentialForward.fog[35].dispatcher droppedJobsSLA 399
scalar FogSequentialForward.fog[35].dispatcher jobs_class_1 3984801
scalar FogSequentialForward.fog[35].dispatcher remoteJobs_class_1 3970423
scalar FogSequentialForward.fog[35].dispatcher localJobs_class_1 13979
scalar FogSequentialForward.fog[35].dispatcher droppedJobsSLA_class_1 399
scalar FogSequentialForward.fog[35].server[0] rho 0.99979716539383
scalar FogSequentialForward.fog[35].server[0] congestionRatio 0
scalar FogSequentialForward.fog[35].server[0] totalJobs 13979
scalar FogSequentialForward.fog[35].server[0] droppedJobsQueue 635
scalar FogSequentialForward.fog[35].server[0] droppedJobsTimout 0
scalar FogSequentialForward.fog[35].server[0] droppedJobsSLA 8204
scalar FogSequentialForward.fog[35].server[0] droppedJobsTotal 8839
scalar FogSequentialForward.fog[36].dispatcher localJobs 13945
scalar FogSequentialForward.fog[36].dispatcher internalJobs 14368
scalar FogSequentialForward.fog[36].dispatcher externalJobs 3972638
scalar FogSequentialForward.fog[36].dispatcher remoteJobs 3972638
scalar FogSequentialForward.fog[36].dispatcher probeQueries 0
scalar FogSequentialForward.fog[36].dispatcher probeAnswers 0
scalar FogSequentialForward.fog[36].dispatcher droppedJobsSLA 423
scalar FogSequentialForward.fog[36].dispatcher jobs_class_1 3987006
scalar FogSequentialForward.fog[36].dispatcher remoteJobs_class_1 3972638
scalar FogSequentialForward.fog[36].dispatcher localJobs_class_1 13945
scalar FogSequentialForward.fog[36].dispatcher droppedJobsSLA_class_1 423
scalar FogSequentialForward.fog[36].server[0] rho 0.99982935190201
scalar FogSequentialForward.fog[36].server[0] congestionRatio 0
scalar FogSequentialForward.fog[36].server[0] totalJobs 13945
scalar FogSequentialForward.fog[36].server[0] droppedJobsQueue 633
scalar FogSequentialForward.fog[36].server[0] droppedJobsTimout 0
scalar FogSequentialForward.fog[36].server[0] droppedJobsSLA 8165
scalar FogSequentialForward.fog[36].server[0] droppedJobsTotal 8798
scalar FogSequentialForward.fog[37].dispatcher localJobs 13938
scalar FogSequentialForward.fog[37].dispatcher internalJobs 14426
scalar FogSequentialForward.fog[37].dispatcher externalJobs 3971778
scalar FogSequentialForward.fog[37].dispatcher remoteJobs 3971824
scalar FogSequentialForward.fog[37].dispatcher probeQueries 0
scalar FogSequentialForward.fog[37].dispatcher probeAnswers 0
scalar FogSequentialForward.fog[37].dispatcher droppedJobsSLA 442
scalar FogSequentialForward.fog[37].dispatcher jobs_class_1 3986204
scalar FogSequentialForward.fog[37].dispatcher remoteJobs_class_1 3971824
scalar FogSequentialForward.fog[37].dispatcher localJobs_class_1 13938
scalar FogSequentialForward.fog[37].dispatcher droppedJobsSLA_class_1 442
scalar FogSequentialForward.fog[37].server[0] rho 0.99984139204025
scalar FogSequentialForward.fog[37].server[0] congestionRatio 0
scalar FogSequentialForward.fog[37].server[0] totalJobs 13938
scalar FogSequentialForward.fog[37].server[0] droppedJobsQueue 633
scalar FogSequentialForward.fog[37].server[0] droppedJobsTimout 0
scalar FogSequentialForward.fog[37].server[0] droppedJobsSLA 8147
scalar FogSequentialForward.fog[37].server[0] droppedJobsTotal 8780
scalar FogSequentialForward.fog[38].dispatcher localJobs 13936
scalar FogSequentialForward.fog[38].dispatcher internalJobs 14318
scalar FogSequentialForward.fog[38].dispatcher externalJobs 3971201
scalar FogSequentialForward.fog[38].dispatcher remoteJobs 3971121
scalar FogSequentialForward.fog[38].dispatcher probeQueries 0
scalar FogSequentialForward.fog[38].dispatcher probeAnswers 0
scalar FogSequentialForward.fog[38].dispatcher droppedJobsSLA 462
scalar FogSequentialForward.fog[38].dispatcher jobs_class_1 3985519
scalar FogSequentialForward.fog[38].dispatcher remoteJobs_class_1 3971121
scalar FogSequentialForward.fog[38].dispatcher localJobs_class_1 13936
scalar FogSequentialForward.fog[38].dispatcher droppedJobsSLA_class_1 462
scalar FogSequentialForward.fog[38].server[0] rho 0.9998322725296
scalar FogSequentialForward.fog[38].server[0] congestionRatio 0
scalar FogSequentialForward.fog[38].server[0] totalJobs 13936
scalar FogSequentialForward.fog[38].server[0] droppedJobsQueue 633
scalar FogSequentialForward.fog[38].server[0] droppedJobsTimout 0
scalar FogSequentialForward.fog[38].server[0] droppedJobsSLA 8128
scalar FogSequentialForward.fog[38].server[0] droppedJobsTotal 8761
scalar FogSequentialForward.fog[39].dispatcher localJobs 13986
scalar FogSequentialForward.fog[39].dispatcher internalJobs 14166
scalar FogSequentialForward.fog[39].dispatcher externalJobs 3972933
scalar FogSequentialForward.fog[39].dispatcher remoteJobs 3972622
scalar FogSequentialForward.fog[39].dispatcher probeQueries 0
scalar FogSequentialForward.fog[39].dispatcher probeAnswers 0
scalar FogSequentialForward.fog[39].dispatcher droppedJobsSLA 491
scalar FogSequentialForward.fog[39].dispatcher jobs_class_1 3987099
scalar FogSequentialForward.fog[39].dispatcher remoteJobs_class_1 3972622
scalar FogSequentialForward.fog[39].dispatcher localJobs_class_1 13986
scalar FogSequentialForward.fog[39].dispatcher droppedJobsSLA_class_1 491
scalar FogSequentialForward.fog[39].server[0] rho 0.99983477592468
scalar FogSequentialForward.fog[39].server[0] congestionRatio 0
scalar FogSequentialForward.fog[39].server[0] totalJobs 13986
scalar FogSequentialForward.fog[39].server[0] droppedJobsQueue 635
scalar FogSequentialForward.fog[39].server[0] droppedJobsTimout 0
scalar FogSequentialForward.fog[39].server[0] droppedJobsSLA 8173
scalar FogSequentialForward.fog[39].server[0] droppedJobsTotal 8808
scalar FogSequentialForward.fog[40].dispatcher localJobs 13945
scalar FogSequentialForward.fog[40].dispatcher internalJobs 14237
scalar FogSequentialForward.fog[40].dispatcher externalJobs 3976909
scalar FogSequentialForward.fog[40].dispatcher remoteJobs 3976768
scalar FogSequentialForward.fog[40].dispatcher probeQueries 0
scalar FogSequentialForward.fog[40].dispatcher probeAnswers 0
scalar FogSequentialForward.fog[40].dispatcher droppedJobsSLA 433
scalar FogSequentialForward.fog[40].dispatcher jobs_class_1 3991146
scalar FogSequentialForward.fog[40].dispatcher remoteJobs_class_1 3976768
scalar FogSequentialForward.fog[40].dispatcher localJobs_class_1 13945
scalar FogSequentialForward.fog[40].dispatcher droppedJobsSLA_class_1 433
scalar FogSequentialForward.fog[40].server[0] rho 0.99983370304108
scalar FogSequentialForward.fog[40].server[0] congestionRatio 0
scalar FogSequentialForward.fog[40].server[0] totalJobs 13945
scalar FogSequentialForward.fog[40].server[0] droppedJobsQueue 633
scalar FogSequentialForward.fog[40].server[0] droppedJobsTimout 0
scalar FogSequentialForward.fog[40].server[0] droppedJobsSLA 8134
scalar FogSequentialForward.fog[40].server[0] droppedJobsTotal 8767
scalar FogSequentialForward.fog[41].dispatcher localJobs 13935
scalar FogSequentialForward.fog[41].dispatcher internalJobs 14522
scalar FogSequentialForward.fog[41].dispatcher externalJobs 3975657
scalar FogSequentialForward.fog[41].dispatcher remoteJobs 3975787
scalar FogSequentialForward.fog[41].dispatcher probeQueries 0
scalar FogSequentialForward.fog[41].dispatcher probeAnswers 0
scalar FogSequentialForward.fog[41].dispatcher droppedJobsSLA 457
scalar FogSequentialForward.fog[41].dispatcher jobs_class_1 3990179
scalar FogSequentialForward.fog[41].dispatcher remoteJobs_class_1 3975787
scalar FogSequentialForward.fog[41].dispatcher localJobs_class_1 13935
scalar FogSequentialForward.fog[41].dispatcher droppedJobsSLA_class_1 457
scalar FogSequentialForward.fog[41].server[0] rho 0.99983811378479
scalar FogSequentialForward.fog[41].server[0] congestionRatio 0
scalar FogSequentialForward.fog[41].server[0] totalJobs 13935
scalar FogSequentialForward.fog[41].server[0] droppedJobsQueue 633
scalar FogSequentialForward.fog[41].server[0] droppedJobsTimout 0
scalar FogSequentialForward.fog[41].server[0] droppedJobsSLA 8157
scalar FogSequentialForward.fog[41].server[0] droppedJobsTotal 8790
scalar FogSequentialForward.fog[42].dispatcher localJobs 13919
scalar FogSequentialForward.fog[42].dispatcher internalJobs 14198
scalar FogSequentialForward.fog[42].dispatcher externalJobs 3972524
scalar FogSequentialForward.fog[42].dispatcher remoteJobs 3972375
scalar FogSequentialForward.fog[42].dispatcher probeQueries 0
scalar FogSequentialForward.fog[42].dispatcher probeAnswers 0
scalar FogSequentialForward.fog[42].dispatcher droppedJobsSLA 428
scalar FogSequentialForward.fog[42].dispatcher jobs_class_1 3986722
scalar FogSequentialForward.fog[42].dispatcher remoteJobs_class_1 3972375
scalar FogSequentialForward.fog[42].dispatcher localJobs_class_1 13919
scalar FogSequentialForward.fog[42].dispatcher droppedJobsSLA_class_1 428
scalar FogSequentialForward.fog[42].server[0] rho 0.99984395503998
scalar FogSequentialForward.fog[42].server[0] congestionRatio 0
scalar FogSequentialForward.fog[42].server[0] totalJobs 13919
scalar FogSequentialForward.fog[42].server[0] droppedJobsQueue 632
scalar FogSequentialForward.fog[42].server[0] droppedJobsTimout 0
scalar FogSequentialForward.fog[42].server[0] droppedJobsSLA 8210
scalar FogSequentialForward.fog[42].server[0] droppedJobsTotal 8842
scalar FogSequentialForward.fog[43].dispatcher localJobs 13947
scalar FogSequentialForward.fog[43].dispatcher internalJobs 14336
scalar FogSequentialForward.fog[43].dispatcher externalJobs 3972415
scalar FogSequentialForward.fog[43].dispatcher remoteJobs 3972367
scalar FogSequentialForward.fog[43].dispatcher probeQueries 0
scalar FogSequentialForward.fog[43].dispatcher probeAnswers 0
scalar FogSequentialForward.fog[43].dispatcher droppedJobsSLA 437
scalar FogSequentialForward.fog[43].dispatcher jobs_class_1 3986751
scalar FogSequentialForward.fog[43].dispatcher remoteJobs_class_1 3972367
scalar FogSequentialForward.fog[43].dispatcher localJobs_class_1 13947
scalar FogSequentialForward.fog[43].dispatcher droppedJobsSLA_class_1 437
scalar FogSequentialForward.fog[43].server[0] rho 0.99983215332031
scalar FogSequentialForward.fog[43].server[0] congestionRatio 0
scalar FogSequentialForward.fog[43].server[0] totalJobs 13947
scalar FogSequentialForward.fog[43].server[0] droppedJobsQueue 633
scalar FogSequentialForward.fog[43].server[0] droppedJobsTimout 0
scalar FogSequentialForward.fog[43].server[0] droppedJobsSLA 8177
scalar FogSequentialForward.fog[43].server[0] droppedJobsTotal 8810
scalar FogSequentialForward.fog[44].dispatcher localJobs 14000
scalar FogSequentialForward.fog[44].dispatcher internalJobs 14371
scalar FogSequentialForward.fog[44].dispatcher externalJobs 3973742
scalar FogSequentialForward.fog[44].dispatcher remoteJobs 3973662
scalar FogSequentialForward.fog[44].dispatcher probeQueries 0
scalar FogSequentialForward.fog[44].dispatcher probeAnswers 0
scalar FogSequentialForward.fog[44].dispatcher droppedJobsSLA 451
scalar FogSequentialForward.fog[44].dispatcher jobs_class_1 3988113
scalar FogSequentialForward.fog[44].dispatcher remoteJobs_class_1 3973662
scalar FogSequentialForward.fog[44].dispatcher localJobs_class_1 14000
scalar FogSequentialForward.fog[44].dispatcher droppedJobsSLA_class_1 451
scalar FogSequentialForward.fog[44].server[0] rho 0.99983549118042
scalar FogSequentialForward.fog[44].server[0] congestionRatio 0
scalar FogSequentialForward.fog[44].server[0] totalJobs 14000
scalar FogSequentialForward.fog[44].server[0] droppedJobsQueue 636
scalar FogSequentialForward.fog[44].server[0] droppedJobsTimout 0
scalar FogSequentialForward.fog[44].server[0] droppedJobsSLA 8178
scalar FogSequentialForward.fog[44].server[0] droppedJobsTotal 8814
scalar FogSequentialForward.fog[45].dispatcher localJobs 13899
scalar FogSequentialForward.fog[45].dispatcher internalJobs 14502
scalar FogSequentialForward.fog[45].dispatcher externalJobs 3974362
scalar FogSequentialForward.fog[45].dispatcher remoteJobs 3974503
scalar FogSequentialForward.fog[45].dispatcher probeQueries 0
scalar FogSequentialForward.fog[45].dispatcher probeAnswers 0
scalar FogSequentialForward.fog[45].dispatcher droppedJobsSLA 462
scalar FogSequentialForward.fog[45].dispatcher jobs_class_1 3988864
scalar FogSequentialForward.fog[45].dispatcher remoteJobs_class_1 3974503
scalar FogSequentialForward.fog[45].dispatcher localJobs_class_1 13899
scalar FogSequentialForward.fog[45].dispatcher droppedJobsSLA_class_1 462
scalar FogSequentialForward.fog[45].server[0] rho 0.99984073638916
scalar FogSequentialForward.fog[45].server[0] congestionRatio 0
scalar FogSequentialForward.fog[45].server[0] totalJobs 13899
scalar FogSequentialForward.fog[45].server[0] droppedJobsQueue 631
scalar FogSequentialForward.fog[45].server[0] droppedJobsTimout 0
scalar FogSequentialForward.fog[45].server[0] droppedJobsSLA 8137
scalar FogSequentialForward.fog[45].server[0] droppedJobsTotal 8768
scalar FogSequentialForward.fog[46].dispatcher localJobs 13963
scalar FogSequentialForward.fog[46].dispatcher internalJobs 14329
scalar FogSequentialForward.fog[46].dispatcher externalJobs 3972967
scalar FogSequentialForward.fog[46].dispatcher remoteJobs 3972906
scalar FogSequentialForward.fog[46].dispatcher probeQueries 0
scalar FogSequentialForward.fog[46].dispatcher probeAnswers 0
scalar FogSequentialForward.fog[46].dispatcher droppedJobsSLA 427
scalar FogSequentialForward.fog[46].dispatcher jobs_class_1 3987296
scalar FogSequentialForward.fog[46].dispatcher remoteJobs_class_1 3972906
scalar FogSequentialForward.fog[46].dispatcher localJobs_class_1 13963
scalar FogSequentialForward.fog[46].dispatcher droppedJobsSLA_class_1 427
scalar FogSequentialForward.fog[46].server[0] rho 0.99984407424927
scalar FogSequentialForward.fog[46].server[0] congestionRatio 0
scalar FogSequentialForward.fog[46].server[0] totalJobs 13963
scalar FogSequentialForward.fog[46].server[0] droppedJobsQueue 634
scalar FogSequentialForward.fog[46].server[0] droppedJobsTimout 0
scalar FogSequentialForward.fog[46].server[0] droppedJobsSLA 8198
scalar FogSequentialForward.fog[46].server[0] droppedJobsTotal 8832
scalar FogSequentialForward.fog[47].dispatcher localJobs 13985
scalar FogSequentialForward.fog[47].dispatcher internalJobs 14226
scalar FogSequentialForward.fog[47].dispatcher externalJobs 3970378
scalar FogSequentialForward.fog[47].dispatcher remoteJobs 3970221
scalar FogSequentialForward.fog[47].dispatcher probeQueries 0
scalar FogSequentialForward.fog[47].dispatcher probeAnswers 0
scalar FogSequentialForward.fog[47].dispatcher droppedJobsSLA 398
scalar FogSequentialForward.fog[47].dispatcher jobs_class_1 3984604
scalar FogSequentialForward.fog[47].dispatcher remoteJobs_class_1 3970221
scalar FogSequentialForward.fog[47].dispatcher localJobs_class_1 13985
scalar FogSequentialForward.fog[47].dispatcher droppedJobsSLA_class_1 398
scalar FogSequentialForward.fog[47].server[0] rho 0.99979788064957
scalar FogSequentialForward.fog[47].server[0] congestionRatio 0
scalar FogSequentialForward.fog[47].server[0] totalJobs 13985
scalar FogSequentialForward.fog[47].server[0] droppedJobsQueue 635
scalar FogSequentialForward.fog[47].server[0] droppedJobsTimout 0
scalar FogSequentialForward.fog[47].server[0] droppedJobsSLA 8194
scalar FogSequentialForward.fog[47].server[0] droppedJobsTotal 8829
scalar FogSequentialForward.fog[48].dispatcher localJobs 13949
scalar FogSequentialForward.fog[48].dispatcher internalJobs 14437
scalar FogSequentialForward.fog[48].dispatcher externalJobs 3976601
scalar FogSequentialForward.fog[48].dispatcher remoteJobs 3976620
scalar FogSequentialForward.fog[48].dispatcher probeQueries 0
scalar FogSequentialForward.fog[48].dispatcher probeAnswers 0
scalar FogSequentialForward.fog[48].dispatcher droppedJobsSLA 469
scalar FogSequentialForward.fog[48].dispatcher jobs_class_1 3991038
scalar FogSequentialForward.fog[48].dispatcher remoteJobs_class_1 3976620
scalar FogSequentialForward.fog[48].dispatcher localJobs_class_1 13949
scalar FogSequentialForward.fog[48].dispatcher droppedJobsSLA_class_1 469
scalar FogSequentialForward.fog[48].server[0] rho 0.99981939792633
scalar FogSequentialForward.fog[48].server[0] congestionRatio 0
scalar FogSequentialForward.fog[48].server[0] totalJobs 13949
scalar FogSequentialForward.fog[48].server[0] droppedJobsQueue 633
scalar FogSequentialForward.fog[48].server[0] droppedJobsTimout 0
scalar FogSequentialForward.fog[48].server[0] droppedJobsSLA 8196
scalar FogSequentialForward.fog[48].server[0] droppedJobsTotal 8829
scalar FogSequentialForward.fog[49].dispatcher localJobs 14012
scalar FogSequentialForward.fog[49].dispatcher internalJobs 14277
scalar FogSequentialForward.fog[49].dispatcher externalJobs 3973939
scalar FogSequentialForward.fog[49].dispatcher remoteJobs 3973751
scalar FogSequentialForward.fog[49].dispatcher probeQueries 0
scalar FogSequentialForward.fog[49].dispatcher probeAnswers 0
scalar FogSequentialForward.fog[49].dispatcher droppedJobsSLA 453
scalar FogSequentialForward.fog[49].dispatcher jobs_class_1 3988216
scalar FogSequentialForward.fog[49].dispatcher remoteJobs_class_1 3973751
scalar FogSequentialForward.fog[49].dispatcher localJobs_class_1 14012
scalar FogSequentialForward.fog[49].dispatcher droppedJobsSLA_class_1 453
scalar FogSequentialForward.fog[49].server[0] rho 0.99980926513672
scalar FogSequentialForward.fog[49].server[0] congestionRatio 0
scalar FogSequentialForward.fog[49].server[0] totalJobs 14012
scalar FogSequentialForward.fog[49].server[0] droppedJobsQueue 636
scalar FogSequentialForward.fog[49].server[0] droppedJobsTimout 0
scalar FogSequentialForward.fog[49].server[0] droppedJobsSLA 8243
scalar FogSequentialForward.fog[49].server[0] droppedJobsTotal 8879
scalar FogSequentialForward.fog[50].dispatcher localJobs 13945
scalar FogSequentialForward.fog[50].dispatcher internalJobs 14367
scalar FogSequentialForward.fog[50].dispatcher externalJobs 3974795
scalar FogSequentialForward.fog[50].dispatcher remoteJobs 3974762
scalar FogSequentialForward.fog[50].dispatcher probeQueries 0
scalar FogSequentialForward.fog[50].dispatcher probeAnswers 0
scalar FogSequentialForward.fog[50].dispatcher droppedJobsSLA 455
scalar FogSequentialForward.fog[50].dispatcher jobs_class_1 3989162
scalar FogSequentialForward.fog[50].dispatcher remoteJobs_class_1 3974762
scalar FogSequentialForward.fog[50].dispatcher localJobs_class_1 13945
scalar FogSequentialForward.fog[50].dispatcher droppedJobsSLA_class_1 455
scalar FogSequentialForward.fog[50].server[0] rho 0.99983984231949
scalar FogSequentialForward.fog[50].server[0] congestionRatio 0
scalar FogSequentialForward.fog[50].server[0] totalJobs 13945
scalar FogSequentialForward.fog[50].server[0] droppedJobsQueue 633
scalar FogSequentialForward.fog[50].server[0] droppedJobsTimout 0
scalar FogSequentialForward.fog[50].server[0] droppedJobsSLA 8160
scalar FogSequentialForward.fog[50].server[0] droppedJobsTotal 8793
scalar FogSequentialForward.fog[51].dispatcher localJobs 13982
scalar FogSequentialForward.fog[51].dispatcher internalJobs 14566
scalar FogSequentialForward.fog[51].dispatcher externalJobs 3972924
scalar FogSequentialForward.fog[51].dispatcher remoteJobs 3973062
scalar FogSequentialForward.fog[51].dispatcher probeQueries 0
scalar FogSequentialForward.fog[51].dispatcher probeAnswers 0
scalar FogSequentialForward.fog[51].dispatcher droppedJobsSLA 446
scalar FogSequentialForward.fog[51].dispatcher jobs_class_1 3987490
scalar FogSequentialForward.fog[51].dispatcher remoteJobs_class_1 3973062
scalar FogSequentialForward.fog[51].dispatcher localJobs_class_1 13982
scalar FogSequentialForward.fog[51].dispatcher droppedJobsSLA_class_1 446
scalar FogSequentialForward.fog[51].server[0] rho 0.99977791309357
scalar FogSequentialForward.fog[51].server[0] congestionRatio 0
scalar FogSequentialForward.fog[51].server[0] totalJobs 13982
scalar FogSequentialForward.fog[51].server[0] droppedJobsQueue 635
scalar FogSequentialForward.fog[51].server[0] droppedJobsTimout 0
scalar FogSequentialForward.fog[51].server[0] droppedJobsSLA 8171
scalar FogSequentialForward.fog[51].server[0] droppedJobsTotal 8806
scalar FogSequentialForward.fog[52].dispatcher localJobs 13957
scalar FogSequentialForward.fog[52].dispatcher internalJobs 14350
scalar FogSequentialForward.fog[52].dispatcher externalJobs 3969279
scalar FogSequentialForward.fog[52].dispatcher remoteJobs 3969237
scalar FogSequentialForward.fog[52].dispatcher probeQueries 0
scalar FogSequentialForward.fog[52].dispatcher probeAnswers 0
scalar FogSequentialForward.fog[52].dispatcher droppedJobsSLA 435
scalar FogSequentialForward.fog[52].dispatcher jobs_class_1 3983629
scalar FogSequentialForward.fog[52].dispatcher remoteJobs_class_1 3969237
scalar FogSequentialForward.fog[52].dispatcher localJobs_class_1 13957
scalar FogSequentialForward.fog[52].dispatcher droppedJobsSLA_class_1 435
scalar FogSequentialForward.fog[52].server[0] rho 0.99984323978424
scalar FogSequentialForward.fog[52].server[0] congestionRatio 0
scalar FogSequentialForward.fog[52].server[0] totalJobs 13957
scalar FogSequentialForward.fog[52].server[0] droppedJobsQueue 634
scalar FogSequentialForward.fog[52].server[0] droppedJobsTimout 0
scalar FogSequentialForward.fog[52].server[0] droppedJobsSLA 8177
scalar FogSequentialForward.fog[52].server[0] droppedJobsTotal 8811
scalar FogSequentialForward.fog[53].dispatcher localJobs 13963
scalar FogSequentialForward.fog[53].dispatcher internalJobs 14467
scalar FogSequentialForward.fog[53].dispatcher externalJobs 3972444
scalar FogSequentialForward.fog[53].dispatcher remoteJobs 3972454
scalar FogSequentialForward.fog[53].dispatcher probeQueries 0
scalar FogSequentialForward.fog[53].dispatcher probeAnswers 0
scalar FogSequentialForward.fog[53].dispatcher droppedJobsSLA 494
scalar FogSequentialForward.fog[53].dispatcher jobs_class_1 3986911
scalar FogSequentialForward.fog[53].dispatcher remoteJobs_class_1 3972454
scalar FogSequentialForward.fog[53].dispatcher localJobs_class_1 13963
scalar FogSequentialForward.fog[53].dispatcher droppedJobsSLA_class_1 494
scalar FogSequentialForward.fog[53].server[0] rho 0.99983590841293
scalar FogSequentialForward.fog[53].server[0] congestionRatio 0
scalar FogSequentialForward.fog[53].server[0] totalJobs 13963
scalar FogSequentialForward.fog[53].server[0] droppedJobsQueue 634
scalar FogSequentialForward.fog[53].server[0] droppedJobsTimout 0
scalar FogSequentialForward.fog[53].server[0] droppedJobsSLA 8164
scalar FogSequentialForward.fog[53].server[0] droppedJobsTotal 8798
scalar FogSequentialForward.fog[54].dispatcher localJobs 13941
scalar FogSequentialForward.fog[54].dispatcher internalJobs 14387
scalar FogSequentialForward.fog[54].dispatcher externalJobs 3977040
scalar FogSequentialForward.fog[54].dispatcher remoteJobs 3977060
scalar FogSequentialForward.fog[54].dispatcher probeQueries 0
scalar FogSequentialForward.fog[54].dispatcher probeAnswers 0
scalar FogSequentialForward.fog[54].dispatcher droppedJobsSLA 426
scalar FogSequentialForward.fog[54].dispatcher jobs_class_1 3991427
scalar FogSequentialForward.fog[54].dispatcher remoteJobs_class_1 3977060
scalar FogSequentialForward.fog[54].dispatcher localJobs_class_1 13941
scalar FogSequentialForward.fog[54].dispatcher droppedJobsSLA_class_1 426
scalar FogSequentialForward.fog[54].server[0] rho 0.99984073638916
scalar FogSequentialForward.fog[54].server[0] congestionRatio 0
scalar FogSequentialForward.fog[54].server[0] totalJobs 13941
scalar FogSequentialForward.fog[54].server[0] droppedJobsQueue 633
scalar FogSequentialForward.fog[54].server[0] droppedJobsTimout 0
scalar FogSequentialForward.fog[54].server[0] droppedJobsSLA 8155
scalar FogSequentialForward.fog[54].server[0] droppedJobsTotal 8788
scalar FogSequentialForward.fog[55].dispatcher localJobs 13945
scalar FogSequentialForward.fog[55].dispatcher internalJobs 14581
scalar FogSequentialForward.fog[55].dispatcher externalJobs 3971850
scalar FogSequentialForward.fog[55].dispatcher remoteJobs 3972050
scalar FogSequentialForward.fog[55].dispatcher probeQueries 0
scalar FogSequentialForward.fog[55].dispatcher probeAnswers 0
scalar FogSequentialForward.fog[55].dispatcher droppedJobsSLA 436
scalar FogSequentialForward.fog[55].dispatcher jobs_class_1 3986431
scalar FogSequentialForward.fog[55].dispatcher remoteJobs_class_1 3972050
scalar FogSequentialForward.fog[55].dispatcher localJobs_class_1 13945
scalar FogSequentialForward.fog[55].dispatcher droppedJobsSLA_class_1 436
scalar FogSequentialForward.fog[55].server[0] rho 0.99980759620667
scalar FogSequentialForward.fog[55].server[0] congestionRatio 0
scalar FogSequentialForward.fog[55].server[0] totalJobs 13945
scalar FogSequentialForward.fog[55].server[0] droppedJobsQueue 633
scalar FogSequentialForward.fog[55].server[0] droppedJobsTimout 0
scalar FogSequentialForward.fog[55].server[0] droppedJobsSLA 8202
scalar FogSequentialForward.fog[55].server[0] droppedJobsTotal 8835
scalar FogSequentialForward.fog[56].dispatcher localJobs 13960
scalar FogSequentialForward.fog[56].dispatcher internalJobs 14398
scalar FogSequentialForward.fog[56].dispatcher externalJobs 3973631
scalar FogSequentialForward.fog[56].dispatcher remoteJobs 3973654
scalar FogSequentialForward.fog[56].dispatcher probeQueries 0
scalar FogSequentialForward.fog[56].dispatcher probeAnswers 0
scalar FogSequentialForward.fog[56].dispatcher droppedJobsSLA 415
scalar FogSequentialForward.fog[56].dispatcher jobs_class_1 3988029
scalar FogSequentialForward.fog[56].dispatcher remoteJobs_class_1 3973654
scalar FogSequentialForward.fog[56].dispatcher localJobs_class_1 13960
scalar FogSequentialForward.fog[56].dispatcher droppedJobsSLA_class_1 415
scalar FogSequentialForward.fog[56].server[0] rho 0.99984264373779
scalar FogSequentialForward.fog[56].server[0] congestionRatio 0
scalar FogSequentialForward.fog[56].server[0] totalJobs 13960
scalar FogSequentialForward.fog[56].server[0] droppedJobsQueue 634
scalar FogSequentialForward.fog[56].server[0] droppedJobsTimout 0
scalar FogSequentialForward.fog[56].server[0] droppedJobsSLA 8195
scalar FogSequentialForward.fog[56].server[0] droppedJobsTotal 8829
scalar FogSequentialForward.fog[57].dispatcher localJobs 13985
scalar FogSequentialForward.fog[57].dispatcher internalJobs 14383
scalar FogSequentialForward.fog[57].dispatcher externalJobs 3971530
scalar FogSequentialForward.fog[57].dispatcher remoteJobs 3971500
scalar FogSequentialForward.fog[57].dispatcher probeQueries 0
scalar FogSequentialForward.fog[57].dispatcher probeAnswers 0
scalar FogSequentialForward.fog[57].dispatcher droppedJobsSLA 428
scalar FogSequentialForward.fog[57].dispatcher jobs_class_1 3985913
scalar FogSequentialForward.fog[57].dispatcher remoteJobs_class_1 3971500
scalar FogSequentialForward.fog[57].dispatcher localJobs_class_1 13985
scalar FogSequentialForward.fog[57].dispatcher droppedJobsSLA_class_1 428
scalar FogSequentialForward.fog[57].server[0] rho 0.99982100725174
scalar FogSequentialForward.fog[57].server[0] congestionRatio 0
scalar FogSequentialForward.fog[57].server[0] totalJobs 13985
scalar FogSequentialForward.fog[57].server[0] droppedJobsQueue 635
scalar FogSequentialForward.fog[57].server[0] droppedJobsTimout 0
scalar FogSequentialForward.fog[57].server[0] droppedJobsSLA 8211
scalar FogSequentialForward.fog[57].server[0] droppedJobsTotal 8846
scalar FogSequentialForward.fog[58].dispatcher localJobs 13961
scalar FogSequentialForward.fog[58].dispatcher internalJobs 14267
scalar FogSequentialForward.fog[58].dispatcher externalJobs 3972080
scalar FogSequentialForward.fog[58].dispatcher remoteJobs 3971928
scalar FogSequentialForward.fog[58].dispatcher probeQueries 0
scalar FogSequentialForward.fog[58].dispatcher probeAnswers 0
scalar FogSequentialForward.fog[58].dispatcher droppedJobsSLA 458
scalar FogSequentialForward.fog[58].dispatcher jobs_class_1 3986347
scalar FogSequentialForward.fog[58].dispatcher remoteJobs_class_1 3971928
scalar FogSequentialForward.fog[58].dispatcher localJobs_class_1 13961
scalar FogSequentialForward.fog[58].dispatcher droppedJobsSLA_class_1 458
scalar FogSequentialForward.fog[58].server[0] rho 0.99983841180801
scalar FogSequentialForward.fog[58].server[0] congestionRatio 0
scalar FogSequentialForward.fog[58].server[0] totalJobs 13961
scalar FogSequentialForward.fog[58].server[0] droppedJobsQueue 634
scalar FogSequentialForward.fog[58].server[0] droppedJobsTimout 0
scalar FogSequentialForward.fog[58].server[0] droppedJobsSLA 8185
scalar FogSequentialForward.fog[58].server[0] droppedJobsTotal 8819
scalar FogSequentialForward.fog[59].dispatcher localJobs 14007
scalar FogSequentialForward.fog[59].dispatcher internalJobs 14462
scalar FogSequentialForward.fog[59].dispatcher externalJobs 3974208
scalar FogSequentialForward.fog[59].dispatcher remoteJobs 3974210
scalar FogSequentialForward.fog[59].dispatcher probeQueries 0
scalar FogSequentialForward.fog[59].dispatcher probeAnswers 0
scalar FogSequentialForward.fog[59].dispatcher droppedJobsSLA 453
scalar FogSequentialForward.fog[59].dispatcher jobs_class_1 3988670
scalar FogSequentialForward.fog[59].dispatcher remoteJobs_class_1 3974210
scalar FogSequentialForward.fog[59].dispatcher localJobs_class_1 14007
scalar FogSequentialForward.fog[59].dispatcher droppedJobsSLA_class_1 453
scalar FogSequentialForward.fog[59].server[0] rho 0.99981272220612
scalar FogSequentialForward.fog[59].server[0] congestionRatio 0
scalar FogSequentialForward.fog[59].server[0] totalJobs 14007
scalar FogSequentialForward.fog[59].server[0] droppedJobsQueue 636
scalar FogSequentialForward.fog[59].server[0] droppedJobsTimout 0
scalar FogSequentialForward.fog[59].server[0] droppedJobsSLA 8200
scalar FogSequentialForward.fog[59].server[0] droppedJobsTotal 8836
scalar FogSequentialForward.fog[60].dispatcher localJobs 14020
scalar FogSequentialForward.fog[60].dispatcher internalJobs 14369
scalar FogSequentialForward.fog[60].dispatcher externalJobs 3971024
scalar FogSequentialForward.fog[60].dispatcher remoteJobs 3970941
scalar FogSequentialForward.fog[60].dispatcher probeQueries 0
scalar FogSequentialForward.fog[60].dispatcher probeAnswers 0
scalar FogSequentialForward.fog[60].dispatcher droppedJobsSLA 432
scalar FogSequentialForward.fog[60].dispatcher jobs_class_1 3985393
scalar FogSequentialForward.fog[60].dispatcher remoteJobs_class_1 3970941
scalar FogSequentialForward.fog[60].dispatcher localJobs_class_1 14020
scalar FogSequentialForward.fog[60].dispatcher droppedJobsSLA_class_1 432
scalar FogSequentialForward.fog[60].server[0] rho 0.99984246492386
scalar FogSequentialForward.fog[60].server[0] congestionRatio 0
scalar FogSequentialForward.fog[60].server[0] totalJobs 14020
scalar FogSequentialForward.fog[60].server[0] droppedJobsQueue 637
scalar FogSequentialForward.fog[60].server[0] droppedJobsTimout 0
scalar FogSequentialForward.fog[60].server[0] droppedJobsSLA 8237
scalar FogSequentialForward.fog[60].server[0] droppedJobsTotal 8874
scalar FogSequentialForward.fog[61].dispatcher localJobs 14002
scalar FogSequentialForward.fog[61].dispatcher internalJobs 14266
scalar FogSequentialForward.fog[61].dispatcher externalJobs 3976940
scalar FogSequentialForward.fog[61].dispatcher remoteJobs 3976781
scalar FogSequentialForward.fog[61].dispatcher probeQueries 0
scalar FogSequentialForward.fog[61].dispatcher probeAnswers 0
scalar FogSequentialForward.fog[61].dispatcher droppedJobsSLA 423
scalar FogSequentialForward.fog[61].dispatcher jobs_class_1 3991206
scalar FogSequentialForward.fog[61].dispatcher remoteJobs_class_1 3976781
scalar FogSequentialForward.fog[61].dispatcher localJobs_class_1 14002
scalar FogSequentialForward.fog[61].dispatcher droppedJobsSLA_class_1 423
scalar FogSequentialForward.fog[61].server[0] rho 0.99982994794846
scalar FogSequentialForward.fog[61].server[0] congestionRatio 0
scalar FogSequentialForward.fog[61].server[0] totalJobs 14002
scalar FogSequentialForward.fog[61].server[0] droppedJobsQueue 636
scalar FogSequentialForward.fog[61].server[0] droppedJobsTimout 0
scalar FogSequentialForward.fog[61].server[0] droppedJobsSLA 8220
scalar FogSequentialForward.fog[61].server[0] droppedJobsTotal 8856
scalar FogSequentialForward.fog[62].dispatcher localJobs 13971
scalar FogSequentialForward.fog[62].dispatcher internalJobs 14330
scalar FogSequentialForward.fog[62].dispatcher externalJobs 3973195
scalar FogSequentialForward.fog[62].dispatcher remoteJobs 3973135
scalar FogSequentialForward.fog[62].dispatcher probeQueries 0
scalar FogSequentialForward.fog[62].dispatcher probeAnswers 0
scalar FogSequentialForward.fog[62].dispatcher droppedJobsSLA 419
scalar FogSequentialForward.fog[62].dispatcher jobs_class_1 3987525
scalar FogSequentialForward.fog[62].dispatcher remoteJobs_class_1 3973135
scalar FogSequentialForward.fog[62].dispatcher localJobs_class_1 13971
scalar FogSequentialForward.fog[62].dispatcher droppedJobsSLA_class_1 419
scalar FogSequentialForward.fog[62].server[0] rho 0.99981969594955
scalar FogSequentialForward.fog[62].server[0] congestionRatio 0
scalar FogSequentialForward.fog[62].server[0] totalJobs 13971
scalar FogSequentialForward.fog[62].server[0] droppedJobsQueue 634
scalar FogSequentialForward.fog[62].server[0] droppedJobsTimout 0
scalar FogSequentialForward.fog[62].server[0] droppedJobsSLA 8170
scalar FogSequentialForward.fog[62].server[0] droppedJobsTotal 8804
scalar FogSequentialForward.fog[63].dispatcher localJobs 13981
scalar FogSequentialForward.fog[63].dispatcher internalJobs 14529
scalar FogSequentialForward.fog[63].dispatcher externalJobs 3972514
scalar FogSequentialForward.fog[63].dispatcher remoteJobs 3972646
scalar FogSequentialForward.fog[63].dispatcher probeQueries 0
scalar FogSequentialForward.fog[63].dispatcher probeAnswers 0
scalar FogSequentialForward.fog[63].dispatcher droppedJobsSLA 416
scalar FogSequentialForward.fog[63].dispatcher jobs_class_1 3987043
scalar FogSequentialForward.fog[63].dispatcher remoteJobs_class_1 3972646
scalar FogSequentialForward.fog[63].dispatcher localJobs_class_1 13981
scalar FogSequentialForward.fog[63].dispatcher droppedJobsSLA_class_1 416
scalar FogSequentialForward.fog[63].server[0] rho 0.9998431801796
scalar FogSequentialForward.fog[63].server[0] congestionRatio 0
scalar FogSequentialForward.fog[63].server[0] totalJobs 13981
scalar FogSequentialForward.fog[63].server[0] droppedJobsQueue 635
scalar FogSequentialForward.fog[63].server[0] droppedJobsTimout 0
scalar FogSequentialForward.fog[63].server[0] droppedJobsSLA 8116
scalar FogSequentialForward.fog[63].server[0] droppedJobsTotal 8751
scalar FogSequentialForward.fog[64].dispatcher localJobs 13960
scalar FogSequentialForward.fog[64].dispatcher internalJobs 14296
scalar FogSequentialForward.fog[64].dispatcher externalJobs 3972954
scalar FogSequentialForward.fog[64].dispatcher remoteJobs 3972865
scalar FogSequentialForward.fog[64].dispatcher probeQueries 0
scalar FogSequentialForward.fog[64].dispatcher probeAnswers 0
scalar FogSequentialForward.fog[64].dispatcher droppedJobsSLA 425
scalar FogSequentialForward.fog[64].dispatcher jobs_class_1 3987250
scalar FogSequentialForward.fog[64].dispatcher remoteJobs_class_1 3972865
scalar FogSequentialForward.fog[64].dispatcher localJobs_class_1 13960
scalar FogSequentialForward.fog[64].dispatcher droppedJobsSLA_class_1 425
scalar FogSequentialForward.fog[64].server[0] rho 0.99980801343918
scalar FogSequentialForward.fog[64].server[0] congestionRatio 0
scalar FogSequentialForward.fog[64].server[0] totalJobs 13960
scalar FogSequentialForward.fog[64].server[0] droppedJobsQueue 634
scalar FogSequentialForward.fog[64].server[0] droppedJobsTimout 0
scalar FogSequentialForward.fog[64].server[0] droppedJobsSLA 8191
scalar FogSequentialForward.fog[64].server[0] droppedJobsTotal 8825
scalar FogSequentialForward.fog[65].dispatcher localJobs 13959
scalar FogSequentialForward.fog[65].dispatcher internalJobs 14427
scalar FogSequentialForward.fog[65].dispatcher externalJobs 3972427
scalar FogSequentialForward.fog[65].dispatcher remoteJobs 3972441
scalar FogSequentialForward.fog[65].dispatcher probeQueries 0
scalar FogSequentialForward.fog[65].dispatcher probeAnswers 0
scalar FogSequentialForward.fog[65].dispatcher droppedJobsSLA 454
scalar FogSequentialForward.fog[65].dispatcher jobs_class_1 3986854
scalar FogSequentialForward.fog[65].dispatcher remoteJobs_class_1 3972441
scalar FogSequentialForward.fog[65].dispatcher localJobs_class_1 13959
scalar FogSequentialForward.fog[65].dispatcher droppedJobsSLA_class_1 454
scalar FogSequentialForward.fog[65].server[0] rho 0.99983805418015
scalar FogSequentialForward.fog[65].server[0] congestionRatio 0
[...]
scalar FogSequentialForward.fog[84].dispatcher probeAnswers 0
scalar FogSequentialForward.fog[84].dispatcher droppedJobsSLA 413
scalar FogSequentialForward.fog[84].dispatcher jobs_class_1 3987531
scalar FogSequentialForward.fog[84].dispatcher remoteJobs_class_1 3973128
scalar FogSequentialForward.fog[84].dispatcher localJobs_class_1 13990
scalar FogSequentialForward.fog[84].dispatcher droppedJobsSLA_class_1 413
scalar FogSequentialForward.fog[84].server[0] rho 0.99981355667114
scalar FogSequentialForward.fog[84].server[0] congestionRatio 0
scalar FogSequentialForward.fog[84].server[0] totalJobs 13990
scalar FogSequentialForward.fog[84].server[0] droppedJobsQueue 635
scalar FogSequentialForward.fog[84].server[0] droppedJobsTimout 0
scalar FogSequentialForward.fog[84].server[0] droppedJobsSLA 8206
scalar FogSequentialForward.fog[84].server[0] droppedJobsTotal 8841
scalar FogSequentialForward.fog[85].dispatcher localJobs 13983
scalar FogSequentialForward.fog[85].dispatcher internalJobs 14260
scalar FogSequentialForward.fog[85].dispatcher externalJobs 3969765
scalar FogSequentialForward.fog[85].dispatcher remoteJobs 3969627
scalar FogSequentialForward.fog[85].dispatcher probeQueries 0
scalar FogSequentialForward.fog[85].dispatcher probeAnswers 0
scalar FogSequentialForward.fog[85].dispatcher droppedJobsSLA 415
scalar FogSequentialForward.fog[85].dispatcher jobs_class_1 3984025
scalar FogSequentialForward.fog[85].dispatcher remoteJobs_class_1 3969627
scalar FogSequentialForward.fog[85].dispatcher localJobs_class_1 13983
scalar FogSequentialForward.fog[85].dispatcher droppedJobsSLA_class_1 415
scalar FogSequentialForward.fog[85].server[0] rho 0.99984699487686
scalar FogSequentialForward.fog[85].server[0] congestionRatio 0
scalar FogSequentialForward.fog[85].server[0] totalJobs 13983
scalar FogSequentialForward.fog[85].server[0] droppedJobsQueue 635
scalar FogSequentialForward.fog[85].server[0] droppedJobsTimout 0
scalar FogSequentialForward.fog[85].server[0] droppedJobsSLA 8166
scalar FogSequentialForward.fog[85].server[0] droppedJobsTotal 8801
scalar FogSequentialForward.fog[86].dispatcher localJobs 13983
scalar FogSequentialForward.fog[86].dispatcher internalJobs 14467
scalar FogSequentialForward.fog[86].dispatcher externalJobs 3975919
scalar FogSequentialForward.fog[86].dispatcher remoteJobs 3976005
scalar FogSequentialForward.fog[86].dispatcher probeQueries 0
scalar FogSequentialForward.fog[86].dispatcher probeAnswers 0
scalar FogSequentialForward.fog[86].dispatcher droppedJobsSLA 398
scalar FogSequentialForward.fog[86].dispatcher jobs_class_1 3990386
scalar FogSequentialForward.fog[86].dispatcher remoteJobs_class_1 3976005
scalar FogSequentialForward.fog[86].dispatcher localJobs_class_1 13983
scalar FogSequentialForward.fog[86].dispatcher droppedJobsSLA_class_1 398
scalar FogSequentialForward.fog[86].server[0] rho 0.99980700016022
scalar FogSequentialForward.fog[86].server[0] congestionRatio 0
scalar FogSequentialForward.fog[86].server[0] totalJobs 13983
scalar FogSequentialForward.fog[86].server[0] droppedJobsQueue 635
scalar FogSequentialForward.fog[86].server[0] droppedJobsTimout 0
scalar FogSequentialForward.fog[86].server[0] droppedJobsSLA 8189
scalar FogSequentialForward.fog[86].server[0] droppedJobsTotal 8824
scalar FogSequentialForward.fog[87].dispatcher localJobs 13979
scalar FogSequentialForward.fog[87].dispatcher internalJobs 14446
scalar FogSequentialForward.fog[87].dispatcher externalJobs 3970734
scalar FogSequentialForward.fog[87].dispatcher remoteJobs 3970753
scalar FogSequentialForward.fog[87].dispatcher probeQueries 0
scalar FogSequentialForward.fog[87].dispatcher probeAnswers 0
scalar FogSequentialForward.fog[87].dispatcher droppedJobsSLA 448
scalar FogSequentialForward.fog[87].dispatcher jobs_class_1 3985180
scalar FogSequentialForward.fog[87].dispatcher remoteJobs_class_1 3970753
scalar FogSequentialForward.fog[87].dispatcher localJobs_class_1 13979
scalar FogSequentialForward.fog[87].dispatcher droppedJobsSLA_class_1 448
scalar FogSequentialForward.fog[87].server[0] rho 0.99982088804245
scalar FogSequentialForward.fog[87].server[0] congestionRatio 0
scalar FogSequentialForward.fog[87].server[0] totalJobs 13979
scalar FogSequentialForward.fog[87].server[0] droppedJobsQueue 635
scalar FogSequentialForward.fog[87].server[0] droppedJobsTimout 0
scalar FogSequentialForward.fog[87].server[0] droppedJobsSLA 8184
scalar FogSequentialForward.fog[87].server[0] droppedJobsTotal 8819
scalar FogSequentialForward.fog[88].dispatcher localJobs 13977
scalar FogSequentialForward.fog[88].dispatcher internalJobs 14516
scalar FogSequentialForward.fog[88].dispatcher externalJobs 3975152
scalar FogSequentialForward.fog[88].dispatcher remoteJobs 3975262
scalar FogSequentialForward.fog[88].dispatcher probeQueries 0
scalar FogSequentialForward.fog[88].dispatcher probeAnswers 0
scalar FogSequentialForward.fog[88].dispatcher droppedJobsSLA 429
scalar FogSequentialForward.fog[88].dispatcher jobs_class_1 3989668
scalar FogSequentialForward.fog[88].dispatcher remoteJobs_class_1 3975262
scalar FogSequentialForward.fog[88].dispatcher localJobs_class_1 13977
scalar FogSequentialForward.fog[88].dispatcher droppedJobsSLA_class_1 429
scalar FogSequentialForward.fog[88].server[0] rho 0.99983125925064
scalar FogSequentialForward.fog[88].server[0] congestionRatio 0
scalar FogSequentialForward.fog[88].server[0] totalJobs 13977
scalar FogSequentialForward.fog[88].server[0] droppedJobsQueue 635
scalar FogSequentialForward.fog[88].server[0] droppedJobsTimout 0
scalar FogSequentialForward.fog[88].server[0] droppedJobsSLA 8185
scalar FogSequentialForward.fog[88].server[0] droppedJobsTotal 8820
scalar FogSequentialForward.fog[89].dispatcher localJobs 13942
scalar FogSequentialForward.fog[89].dispatcher internalJobs 14357
scalar FogSequentialForward.fog[89].dispatcher externalJobs 3972043
scalar FogSequentialForward.fog[89].dispatcher remoteJobs 3972026
scalar FogSequentialForward.fog[89].dispatcher probeQueries 0
scalar FogSequentialForward.fog[89].dispatcher probeAnswers 0
scalar FogSequentialForward.fog[89].dispatcher droppedJobsSLA 432
scalar FogSequentialForward.fog[89].dispatcher jobs_class_1 3986400
scalar FogSequentialForward.fog[89].dispatcher remoteJobs_class_1 3972026
scalar FogSequentialForward.fog[89].dispatcher localJobs_class_1 13942
scalar FogSequentialForward.fog[89].dispatcher droppedJobsSLA_class_1 432
scalar FogSequentialForward.fog[89].server[0] rho 0.99983215332031
scalar FogSequentialForward.fog[89].server[0] congestionRatio 0
scalar FogSequentialForward.fog[89].server[0] totalJobs 13942
scalar FogSequentialForward.fog[89].server[0] droppedJobsQueue 633
scalar FogSequentialForward.fog[89].server[0] droppedJobsTimout 0
scalar FogSequentialForward.fog[89].server[0] droppedJobsSLA 8180
scalar FogSequentialForward.fog[89].server[0] droppedJobsTotal 8813
scalar FogSequentialForward.fog[90].dispatcher localJobs 13939
scalar FogSequentialForward.fog[90].dispatcher internalJobs 14270
scalar FogSequentialForward.fog[90].dispatcher externalJobs 3970635
scalar FogSequentialForward.fog[90].dispatcher remoteJobs 3970556
scalar FogSequentialForward.fog[90].dispatcher probeQueries 0
scalar FogSequentialForward.fog[90].dispatcher probeAnswers 0
scalar FogSequentialForward.fog[90].dispatcher droppedJobsSLA 410
scalar FogSequentialForward.fog[90].dispatcher jobs_class_1 3984905
scalar FogSequentialForward.fog[90].dispatcher remoteJobs_class_1 3970556
scalar FogSequentialForward.fog[90].dispatcher localJobs_class_1 13939
scalar FogSequentialForward.fog[90].dispatcher droppedJobsSLA_class_1 410
scalar FogSequentialForward.fog[90].server[0] rho 0.99982166290283
scalar FogSequentialForward.fog[90].server[0] congestionRatio 0
scalar FogSequentialForward.fog[90].server[0] totalJobs 13939
scalar FogSequentialForward.fog[90].server[0] droppedJobsQueue 633
scalar FogSequentialForward.fog[90].server[0] droppedJobsTimout 0
scalar FogSequentialForward.fog[90].server[0] droppedJobsSLA 8149
scalar FogSequentialForward.fog[90].server[0] droppedJobsTotal 8782
scalar FogSequentialForward.fog[91].dispatcher localJobs 13943
scalar FogSequentialForward.fog[91].dispatcher internalJobs 14403
scalar FogSequentialForward.fog[91].dispatcher externalJobs 3971189
scalar FogSequentialForward.fog[91].dispatcher remoteJobs 3971221
scalar FogSequentialForward.fog[91].dispatcher probeQueries 0
scalar FogSequentialForward.fog[91].dispatcher probeAnswers 0
scalar FogSequentialForward.fog[91].dispatcher droppedJobsSLA 428
scalar FogSequentialForward.fog[91].dispatcher jobs_class_1 3985592
scalar FogSequentialForward.fog[91].dispatcher remoteJobs_class_1 3971221
scalar FogSequentialForward.fog[91].dispatcher localJobs_class_1 13943
scalar FogSequentialForward.fog[91].dispatcher droppedJobsSLA_class_1 428
scalar FogSequentialForward.fog[91].server[0] rho 0.99981296062469
scalar FogSequentialForward.fog[91].server[0] congestionRatio 0
scalar FogSequentialForward.fog[91].server[0] totalJobs 13943
scalar FogSequentialForward.fog[91].server[0] droppedJobsQueue 633
scalar FogSequentialForward.fog[91].server[0] droppedJobsTimout 0
scalar FogSequentialForward.fog[91].server[0] droppedJobsSLA 8138
scalar FogSequentialForward.fog[91].server[0] droppedJobsTotal 8771
scalar FogSequentialForward.fog[92].dispatcher localJobs 13939
scalar FogSequentialForward.fog[92].dispatcher internalJobs 14333
scalar FogSequentialForward.fog[92].dispatcher externalJobs 3975119
scalar FogSequentialForward.fog[92].dispatcher remoteJobs 3975082
scalar FogSequentialForward.fog[92].dispatcher probeQueries 0
scalar FogSequentialForward.fog[92].dispatcher probeAnswers 0
scalar FogSequentialForward.fog[92].dispatcher droppedJobsSLA 431
scalar FogSequentialForward.fog[92].dispatcher jobs_class_1 3989452
scalar FogSequentialForward.fog[92].dispatcher remoteJobs_class_1 3975082
scalar FogSequentialForward.fog[92].dispatcher localJobs_class_1 13939
scalar FogSequentialForward.fog[92].dispatcher droppedJobsSLA_class_1 431
scalar FogSequentialForward.fog[92].server[0] rho 0.99981266260147
scalar FogSequentialForward.fog[92].server[0] congestionRatio 0
scalar FogSequentialForward.fog[92].server[0] totalJobs 13939
scalar FogSequentialForward.fog[92].server[0] droppedJobsQueue 633
scalar FogSequentialForward.fog[92].server[0] droppedJobsTimout 0
scalar FogSequentialForward.fog[92].server[0] droppedJobsSLA 8167
scalar FogSequentialForward.fog[92].server[0] droppedJobsTotal 8800
scalar FogSequentialForward.fog[93].dispatcher localJobs 13958
scalar FogSequentialForward.fog[93].dispatcher internalJobs 14336
scalar FogSequentialForward.fog[93].dispatcher externalJobs 3973523
scalar FogSequentialForward.fog[93].dispatcher remoteJobs 3973461
scalar FogSequentialForward.fog[93].dispatcher probeQueries 0
scalar FogSequentialForward.fog[93].dispatcher probeAnswers 0
scalar FogSequentialForward.fog[93].dispatcher droppedJobsSLA 440
scalar FogSequentialForward.fog[93].dispatcher jobs_class_1 3987859
scalar FogSequentialForward.fog[93].dispatcher remoteJobs_class_1 3973461
scalar FogSequentialForward.fog[93].dispatcher localJobs_class_1 13958
scalar FogSequentialForward.fog[93].dispatcher droppedJobsSLA_class_1 440
scalar FogSequentialForward.fog[93].server[0] rho 0.99983829259872
scalar FogSequentialForward.fog[93].server[0] congestionRatio 0
scalar FogSequentialForward.fog[93].server[0] totalJobs 13958
scalar FogSequentialForward.fog[93].server[0] droppedJobsQueue 634
scalar FogSequentialForward.fog[93].server[0] droppedJobsTimout 0
scalar FogSequentialForward.fog[93].server[0] droppedJobsSLA 8186
scalar FogSequentialForward.fog[93].server[0] droppedJobsTotal 8820
scalar FogSequentialForward.fog[94].dispatcher localJobs 13927
scalar FogSequentialForward.fog[94].dispatcher internalJobs 14615
scalar FogSequentialForward.fog[94].dispatcher externalJobs 3977668
scalar FogSequentialForward.fog[94].dispatcher remoteJobs 3977957
scalar FogSequentialForward.fog[94].dispatcher probeQueries 0
scalar FogSequentialForward.fog[94].dispatcher probeAnswers 0
scalar FogSequentialForward.fog[94].dispatcher droppedJobsSLA 399
scalar FogSequentialForward.fog[94].dispatcher jobs_class_1 3992283
scalar FogSequentialForward.fog[94].dispatcher remoteJobs_class_1 3977957
scalar FogSequentialForward.fog[94].dispatcher localJobs_class_1 13927
scalar FogSequentialForward.fog[94].dispatcher droppedJobsSLA_class_1 399
scalar FogSequentialForward.fog[94].server[0] rho 0.99984711408615
scalar FogSequentialForward.fog[94].server[0] congestionRatio 0
scalar FogSequentialForward.fog[94].server[0] totalJobs 13927
scalar FogSequentialForward.fog[94].server[0] droppedJobsQueue 632
scalar FogSequentialForward.fog[94].server[0] droppedJobsTimout 0
scalar FogSequentialForward.fog[94].server[0] droppedJobsSLA 8203
scalar FogSequentialForward.fog[94].server[0] droppedJobsTotal 8835
scalar FogSequentialForward.fog[95].dispatcher localJobs 13959
scalar FogSequentialForward.fog[95].dispatcher internalJobs 14456
scalar FogSequentialForward.fog[95].dispatcher externalJobs 3977973
scalar FogSequentialForward.fog[95].dispatcher remoteJobs 3978033
scalar FogSequentialForward.fog[95].dispatcher probeQueries 0
scalar FogSequentialForward.fog[95].dispatcher probeAnswers 0
scalar FogSequentialForward.fog[95].dispatcher droppedJobsSLA 437
scalar FogSequentialForward.fog[95].dispatcher jobs_class_1 3992429
scalar FogSequentialForward.fog[95].dispatcher remoteJobs_class_1 3978033
scalar FogSequentialForward.fog[95].dispatcher localJobs_class_1 13959
scalar FogSequentialForward.fog[95].dispatcher droppedJobsSLA_class_1 437
scalar FogSequentialForward.fog[95].server[0] rho 0.99982708692551
scalar FogSequentialForward.fog[95].server[0] congestionRatio 0
scalar FogSequentialForward.fog[95].server[0] totalJobs 13959
scalar FogSequentialForward.fog[95].server[0] droppedJobsQueue 634
scalar FogSequentialForward.fog[95].server[0] droppedJobsTimout 0
scalar FogSequentialForward.fog[95].server[0] droppedJobsSLA 8199
scalar FogSequentialForward.fog[95].server[0] droppedJobsTotal 8833
scalar FogSequentialForward.fog[96].dispatcher localJobs 13964
scalar FogSequentialForward.fog[96].dispatcher internalJobs 14368
scalar FogSequentialForward.fog[96].dispatcher externalJobs 3976105
scalar FogSequentialForward.fog[96].dispatcher remoteJobs 3976087
scalar FogSequentialForward.fog[96].dispatcher probeQueries 0
scalar FogSequentialForward.fog[96].dispatcher probeAnswers 0
scalar FogSequentialForward.fog[96].dispatcher droppedJobsSLA 422
scalar FogSequentialForward.fog[96].dispatcher jobs_class_1 3990473
scalar FogSequentialForward.fog[96].dispatcher remoteJobs_class_1 3976087
scalar FogSequentialForward.fog[96].dispatcher localJobs_class_1 13964
scalar FogSequentialForward.fog[96].dispatcher droppedJobsSLA_class_1 422
scalar FogSequentialForward.fog[96].server[0] rho 0.99981325864792
scalar FogSequentialForward.fog[96].server[0] congestionRatio 0
scalar FogSequentialForward.fog[96].server[0] totalJobs 13964
scalar FogSequentialForward.fog[96].server[0] droppedJobsQueue 634
scalar FogSequentialForward.fog[96].server[0] droppedJobsTimout 0
scalar FogSequentialForward.fog[96].server[0] droppedJobsSLA 8180
scalar FogSequentialForward.fog[96].server[0] droppedJobsTotal 8814
scalar FogSequentialForward.fog[97].dispatcher localJobs 13925
scalar FogSequentialForward.fog[97].dispatcher internalJobs 14485
scalar FogSequentialForward.fog[97].dispatcher externalJobs 3976642
scalar FogSequentialForward.fog[97].dispatcher remoteJobs 3976790
scalar FogSequentialForward.fog[97].dispatcher probeQueries 0
scalar FogSequentialForward.fog[97].dispatcher probeAnswers 0
scalar FogSequentialForward.fog[97].dispatcher droppedJobsSLA 412
scalar FogSequentialForward.fog[97].dispatcher jobs_class_1 3991127
scalar FogSequentialForward.fog[97].dispatcher remoteJobs_class_1 3976790
scalar FogSequentialForward.fog[97].dispatcher localJobs_class_1 13925
scalar FogSequentialForward.fog[97].dispatcher droppedJobsSLA_class_1 412
scalar FogSequentialForward.fog[97].server[0] rho 0.99984556436539
scalar FogSequentialForward.fog[97].server[0] congestionRatio 0
scalar FogSequentialForward.fog[97].server[0] totalJobs 13925
scalar FogSequentialForward.fog[97].server[0] droppedJobsQueue 632
scalar FogSequentialForward.fog[97].server[0] droppedJobsTimout 0
scalar FogSequentialForward.fog[97].server[0] droppedJobsSLA 8157
scalar FogSequentialForward.fog[97].server[0] droppedJobsTotal 8789
scalar FogSequentialForward.fog[98].dispatcher localJobs 13937
scalar FogSequentialForward.fog[98].dispatcher internalJobs 14247
scalar FogSequentialForward.fog[98].dispatcher externalJobs 3973603
scalar FogSequentialForward.fog[98].dispatcher remoteJobs 3973475
scalar FogSequentialForward.fog[98].dispatcher probeQueries 0
scalar FogSequentialForward.fog[98].dispatcher probeAnswers 0
scalar FogSequentialForward.fog[98].dispatcher droppedJobsSLA 438
scalar FogSequentialForward.fog[98].dispatcher jobs_class_1 3987850
scalar FogSequentialForward.fog[98].dispatcher remoteJobs_class_1 3973475
scalar FogSequentialForward.fog[98].dispatcher localJobs_class_1 13937
scalar FogSequentialForward.fog[98].dispatcher droppedJobsSLA_class_1 438
scalar FogSequentialForward.fog[98].server[0] rho 0.99980372190475
scalar FogSequentialForward.fog[98].server[0] congestionRatio 0
scalar FogSequentialForward.fog[98].server[0] totalJobs 13937
scalar FogSequentialForward.fog[98].server[0] droppedJobsQueue 633
scalar FogSequentialForward.fog[98].server[0] droppedJobsTimout 0
scalar FogSequentialForward.fog[98].server[0] droppedJobsSLA 8145
scalar FogSequentialForward.fog[98].server[0] droppedJobsTotal 8778
scalar FogSequentialForward.fog[99].dispatcher localJobs 13922
scalar FogSequentialForward.fog[99].dispatcher internalJobs 14140
scalar FogSequentialForward.fog[99].dispatcher externalJobs 3975051
scalar FogSequentialForward.fog[99].dispatcher remoteJobs 3974818
scalar FogSequentialForward.fog[99].dispatcher probeQueries 0
scalar FogSequentialForward.fog[99].dispatcher probeAnswers 0
scalar FogSequentialForward.fog[99].dispatcher droppedJobsSLA 451
scalar FogSequentialForward.fog[99].dispatcher jobs_class_1 3989191
scalar FogSequentialForward.fog[99].dispatcher remoteJobs_class_1 3974818
scalar FogSequentialForward.fog[99].dispatcher localJobs_class_1 13922
scalar FogSequentialForward.fog[99].dispatcher droppedJobsSLA_class_1 451
scalar FogSequentialForward.fog[99].server[0] rho 0.99984484910965
scalar FogSequentialForward.fog[99].server[0] congestionRatio 0
scalar FogSequentialForward.fog[99].server[0] totalJobs 13922
scalar FogSequentialForward.fog[99].server[0] droppedJobsQueue 632
scalar FogSequentialForward.fog[99].server[0] droppedJobsTimout 0
scalar FogSequentialForward.fog[99].server[0] droppedJobsSLA 8219
scalar FogSequentialForward.fog[99].server[0] droppedJobsTotal 8851
scalar FogSequentialForward.sink avg_responseTime_1 10.808248154089
scalar FogSequentialForward.sink p90_responseTime_1 1.572215070666
scalar FogSequentialForward.sink med_responseTime_1 1.572215070666
scalar FogSequentialForward.sink avg_delayTime_1 0
scalar FogSequentialForward.sink p90_delayTime_1 0
scalar FogSequentialForward.sink med_delayTime_1 0
scalar FogSequentialForward.sink avg_queuingTime_1 6.2580326370573
scalar FogSequentialForward.sink p90_queuingTime_1 0
scalar FogSequentialForward.sink med_queuingTime_1 0
scalar FogSequentialForward.sink avg_serviceTime_1 1.6714797582971
scalar FogSequentialForward.sink p90_serviceTime_1 1.50469310751
scalar FogSequentialForward.sink med_serviceTime_1 1.50469310751
scalar FogSequentialForward.sink avg_balancerTime_1 2.8787357587345
scalar FogSequentialForward.sink p90_balancerTime_1 0
scalar FogSequentialForward.sink med_balancerTime_1 0
scalar FogSequentialForward.sink avg_balancerCount_1 173.37938675057
scalar FogSequentialForward.sink p90_balancerCount_1 1
scalar FogSequentialForward.sink med_balancerCount_1 1

