version 2
run Fog-mul_10-rho_08-thr_9-3-20190714-05:01:30-100151
attr configname Fog-mul_10-rho_08-thr_9
attr datetime 20190714-05:01:30
attr experiment Fog-mul_10-rho_08-thr_9
attr inifile FogSequentialForward.ini
attr iterationvars ""
attr iterationvarsf ""
attr measurement ""
attr network FogSequentialForward
attr processid 100151
attr repetition 3
attr replication #3
attr resultdir results
attr runnumber 3
attr seedset 3
param FogSequentialForward.proctimeMul 1.0
param FogSequentialForward.rho 0.8
param FogSequentialForward.fog[*].dispatcher.thr 9
param FogSequentialForward.nSources 100
param FogSequentialForward.rho 0.9
param FogSequentialForward.proctimeMul 1.0
param FogSequentialForward.source[*].appId 1
param FogSequentialForward.source[*].realTime true
param FogSequentialForward.source[*].multiHop true
param FogSequentialForward.fog[*].nServers 1
param FogSequentialForward.fog[*].dispatcher.fanOut 1
param FogSequentialForward.fog[*].server[*].timeSlice -1s
param FogSequentialForward.fog[*].server[*].timeout -1s
param FogSequentialForward.fog[*].server[*].capacity 20
param FogSequentialForward.fog[*].server[*].fifo true
param FogSequentialForward.fog[*].server[*].maxServiceTime -1s
param FogSequentialForward.fog[*].dispatcher.thr 1

scalar FogSequentialForward.fog[0].dispatcher localJobs 14169
scalar FogSequentialForward.fog[0].dispatcher internalJobs 14626
scalar FogSequentialForward.fog[0].dispatcher externalJobs 3656858
scalar FogSequentialForward.fog[0].dispatcher remoteJobs 3656990
scalar FogSequentialForward.fog[0].dispatcher probeQueries 0
scalar FogSequentialForward.fog[0].dispatcher probeAnswers 0
scalar FogSequentialForward.fog[0].dispatcher droppedJobsSLA 325
scalar FogSequentialForward.fog[0].dispatcher jobs_class_1 3671484
scalar FogSequentialForward.fog[0].dispatcher remoteJobs_class_1 3656990
scalar FogSequentialForward.fog[0].dispatcher localJobs_class_1 14169
scalar FogSequentialForward.fog[0].dispatcher droppedJobsSLA_class_1 325
scalar FogSequentialForward.fog[0].server[0] rho 1
scalar FogSequentialForward.fog[0].server[0] congestionRatio 0
scalar FogSequentialForward.fog[0].server[0] totalJobs 14169
scalar FogSequentialForward.fog[0].server[0] droppedJobsQueue 889
scalar FogSequentialForward.fog[0].server[0] droppedJobsTimout 0
scalar FogSequentialForward.fog[0].server[0] droppedJobsSLA 8510
scalar FogSequentialForward.fog[0].server[0] droppedJobsTotal 9399
scalar FogSequentialForward.fog[1].dispatcher localJobs 14139
scalar FogSequentialForward.fog[1].dispatcher internalJobs 14621
scalar FogSequentialForward.fog[1].dispatcher externalJobs 3657208
scalar FogSequentialForward.fog[1].dispatcher remoteJobs 3657354
scalar FogSequentialForward.fog[1].dispatcher probeQueries 0
scalar FogSequentialForward.fog[1].dispatcher probeAnswers 0
scalar FogSequentialForward.fog[1].dispatcher droppedJobsSLA 336
scalar FogSequentialForward.fog[1].dispatcher jobs_class_1 3671829
scalar FogSequentialForward.fog[1].dispatcher remoteJobs_class_1 3657354
scalar FogSequentialForward.fog[1].dispatcher localJobs_class_1 14139
scalar FogSequentialForward.fog[1].dispatcher droppedJobsSLA_class_1 336
scalar FogSequentialForward.fog[1].server[0] rho 0.99999916553497
scalar FogSequentialForward.fog[1].server[0] congestionRatio 0
scalar FogSequentialForward.fog[1].server[0] totalJobs 14139
scalar FogSequentialForward.fog[1].server[0] droppedJobsQueue 888
scalar FogSequentialForward.fog[1].server[0] droppedJobsTimout 0
scalar FogSequentialForward.fog[1].server[0] droppedJobsSLA 8478
scalar FogSequentialForward.fog[1].server[0] droppedJobsTotal 9366
scalar FogSequentialForward.fog[2].dispatcher localJobs 14057
scalar FogSequentialForward.fog[2].dispatcher internalJobs 14415
scalar FogSequentialForward.fog[2].dispatcher externalJobs 3661233
scalar FogSequentialForward.fog[2].dispatcher remoteJobs 3661268
scalar FogSequentialForward.fog[2].dispatcher probeQueries 0
scalar FogSequentialForward.fog[2].dispatcher probeAnswers 0
scalar FogSequentialForward.fog[2].dispatcher droppedJobsSLA 323
scalar FogSequentialForward.fog[2].dispatcher jobs_class_1 3675648
scalar FogSequentialForward.fog[2].dispatcher remoteJobs_class_1 3661268
scalar FogSequentialForward.fog[2].dispatcher localJobs_class_1 14057
scalar FogSequentialForward.fog[2].dispatcher droppedJobsSLA_class_1 323
scalar FogSequentialForward.fog[2].server[0] rho 0.99999576807022
scalar FogSequentialForward.fog[2].server[0] congestionRatio 0
scalar FogSequentialForward.fog[2].server[0] totalJobs 14057
scalar FogSequentialForward.fog[2].server[0] droppedJobsQueue 879
scalar FogSequentialForward.fog[2].server[0] droppedJobsTimout 0
scalar FogSequentialForward.fog[2].server[0] droppedJobsSLA 8393
scalar FogSequentialForward.fog[2].server[0] droppedJobsTotal 9272
scalar FogSequentialForward.fog[3].dispatcher localJobs 14099
scalar FogSequentialForward.fog[3].dispatcher internalJobs 14582
scalar FogSequentialForward.fog[3].dispatcher externalJobs 3656910
scalar FogSequentialForward.fog[3].dispatcher remoteJobs 3657101
scalar FogSequentialForward.fog[3].dispatcher probeQueries 0
scalar FogSequentialForward.fog[3].dispatcher probeAnswers 0
scalar FogSequentialForward.fog[3].dispatcher droppedJobsSLA 292
scalar FogSequentialForward.fog[3].dispatcher jobs_class_1 3671492
scalar FogSequentialForward.fog[3].dispatcher remoteJobs_class_1 3657101
scalar FogSequentialForward.fog[3].dispatcher localJobs_class_1 14099
scalar FogSequentialForward.fog[3].dispatcher droppedJobsSLA_class_1 292
scalar FogSequentialForward.fog[3].server[0] rho 0.99999839067459
scalar FogSequentialForward.fog[3].server[0] congestionRatio 0
scalar FogSequentialForward.fog[3].server[0] totalJobs 14099
scalar FogSequentialForward.fog[3].server[0] droppedJobsQueue 883
scalar FogSequentialForward.fog[3].server[0] droppedJobsTimout 0
scalar FogSequentialForward.fog[3].server[0] droppedJobsSLA 8456
scalar FogSequentialForward.fog[3].server[0] droppedJobsTotal 9339
scalar FogSequentialForward.fog[4].dispatcher localJobs 14079
scalar FogSequentialForward.fog[4].dispatcher internalJobs 14274
scalar FogSequentialForward.fog[4].dispatcher externalJobs 3658778
scalar FogSequentialForward.fog[4].dispatcher remoteJobs 3658660
scalar FogSequentialForward.fog[4].dispatcher probeQueries 0
scalar FogSequentialForward.fog[4].dispatcher probeAnswers 0
scalar FogSequentialForward.fog[4].dispatcher droppedJobsSLA 313
scalar FogSequentialForward.fog[4].dispatcher jobs_class_1 3673052
scalar FogSequentialForward.fog[4].dispatcher remoteJobs_class_1 3658660
scalar FogSequentialForward.fog[4].dispatcher localJobs_class_1 14079
scalar FogSequentialForward.fog[4].dispatcher droppedJobsSLA_class_1 313
scalar FogSequentialForward.fog[4].server[0] rho 0.99999988079071
scalar FogSequentialForward.fog[4].server[0] congestionRatio 0
scalar FogSequentialForward.fog[4].server[0] totalJobs 14079
scalar FogSequentialForward.fog[4].server[0] droppedJobsQueue 884
scalar FogSequentialForward.fog[4].server[0] droppedJobsTimout 0
scalar FogSequentialForward.fog[4].server[0] droppedJobsSLA 8376
scalar FogSequentialForward.fog[4].server[0] droppedJobsTotal 9260
scalar FogSequentialForward.fog[5].dispatcher localJobs 14055
scalar FogSequentialForward.fog[5].dispatcher internalJobs 14468
scalar FogSequentialForward.fog[5].dispatcher externalJobs 3657127
scalar FogSequentialForward.fog[5].dispatcher remoteJobs 3657219
scalar FogSequentialForward.fog[5].dispatcher probeQueries 0
scalar FogSequentialForward.fog[5].dispatcher probeAnswers 0
scalar FogSequentialForward.fog[5].dispatcher droppedJobsSLA 321
scalar FogSequentialForward.fog[5].dispatcher jobs_class_1 3671595
scalar FogSequentialForward.fog[5].dispatcher remoteJobs_class_1 3657219
scalar FogSequentialForward.fog[5].dispatcher localJobs_class_1 14055
scalar FogSequentialForward.fog[5].dispatcher droppedJobsSLA_class_1 321
scalar FogSequentialForward.fog[5].server[0] rho 0.99999988079071
scalar FogSequentialForward.fog[5].server[0] congestionRatio 0
scalar FogSequentialForward.fog[5].server[0] totalJobs 14055
scalar FogSequentialForward.fog[5].server[0] droppedJobsQueue 875
scalar FogSequentialForward.fog[5].server[0] droppedJobsTimout 0
scalar FogSequentialForward.fog[5].server[0] droppedJobsSLA 8379
scalar FogSequentialForward.fog[5].server[0] droppedJobsTotal 9254
scalar FogSequentialForward.fog[6].dispatcher localJobs 14046
scalar FogSequentialForward.fog[6].dispatcher internalJobs 14335
scalar FogSequentialForward.fog[6].dispatcher externalJobs 3656210
scalar FogSequentialForward.fog[6].dispatcher remoteJobs 3656154
scalar FogSequentialForward.fog[6].dispatcher probeQueries 0
scalar FogSequentialForward.fog[6].dispatcher probeAnswers 0
scalar FogSequentialForward.fog[6].dispatcher droppedJobsSLA 345
scalar FogSequentialForward.fog[6].dispatcher jobs_class_1 3670545
scalar FogSequentialForward.fog[6].dispatcher remoteJobs_class_1 3656154
scalar FogSequentialForward.fog[6].dispatcher localJobs_class_1 14046
scalar FogSequentialForward.fog[6].dispatcher droppedJobsSLA_class_1 345
scalar FogSequentialForward.fog[6].server[0] rho 0.99999976158142
scalar FogSequentialForward.fog[6].server[0] congestionRatio 0
scalar FogSequentialForward.fog[6].server[0] totalJobs 14046
scalar FogSequentialForward.fog[6].server[0] droppedJobsQueue 880
scalar FogSequentialForward.fog[6].server[0] droppedJobsTimout 0
scalar FogSequentialForward.fog[6].server[0] droppedJobsSLA 8309
scalar FogSequentialForward.fog[6].server[0] droppedJobsTotal 9189
scalar FogSequentialForward.fog[7].dispatcher localJobs 14095
scalar FogSequentialForward.fog[7].dispatcher internalJobs 14306
scalar FogSequentialForward.fog[7].dispatcher externalJobs 3658425
scalar FogSequentialForward.fog[7].dispatcher remoteJobs 3658301
scalar FogSequentialForward.fog[7].dispatcher probeQueries 0
scalar FogSequentialForward.fog[7].dispatcher probeAnswers 0
scalar FogSequentialForward.fog[7].dispatcher droppedJobsSLA 335
scalar FogSequentialForward.fog[7].dispatcher jobs_class_1 3672731
scalar FogSequentialForward.fog[7].dispatcher remoteJobs_class_1 3658301
scalar FogSequentialForward.fog[7].dispatcher localJobs_class_1 14095
scalar FogSequentialForward.fog[7].dispatcher droppedJobsSLA_class_1 335
scalar FogSequentialForward.fog[7].server[0] rho 1
scalar FogSequentialForward.fog[7].server[0] congestionRatio 0
scalar FogSequentialForward.fog[7].server[0] totalJobs 14095
scalar FogSequentialForward.fog[7].server[0] droppedJobsQueue 887
scalar FogSequentialForward.fog[7].server[0] droppedJobsTimout 0
scalar FogSequentialForward.fog[7].server[0] droppedJobsSLA 8419
scalar FogSequentialForward.fog[7].server[0] droppedJobsTotal 9306
scalar FogSequentialForward.fog[8].dispatcher localJobs 14129
scalar FogSequentialForward.fog[8].dispatcher internalJobs 14744
scalar FogSequentialForward.fog[8].dispatcher externalJobs 3657604
scalar FogSequentialForward.fog[8].dispatcher remoteJobs 3657912
scalar FogSequentialForward.fog[8].dispatcher probeQueries 0
scalar FogSequentialForward.fog[8].dispatcher probeAnswers 0
scalar FogSequentialForward.fog[8].dispatcher droppedJobsSLA 307
scalar FogSequentialForward.fog[8].dispatcher jobs_class_1 3672348
scalar FogSequentialForward.fog[8].dispatcher remoteJobs_class_1 3657912
scalar FogSequentialForward.fog[8].dispatcher localJobs_class_1 14129
scalar FogSequentialForward.fog[8].dispatcher droppedJobsSLA_class_1 307
scalar FogSequentialForward.fog[8].server[0] rho 0.99999940395355
scalar FogSequentialForward.fog[8].server[0] congestionRatio 0
scalar FogSequentialForward.fog[8].server[0] totalJobs 14129
scalar FogSequentialForward.fog[8].server[0] droppedJobsQueue 883
scalar FogSequentialForward.fog[8].server[0] droppedJobsTimout 0
scalar FogSequentialForward.fog[8].server[0] droppedJobsSLA 8448
scalar FogSequentialForward.fog[8].server[0] droppedJobsTotal 9331
scalar FogSequentialForward.fog[9].dispatcher localJobs 14101
scalar FogSequentialForward.fog[9].dispatcher internalJobs 14605
scalar FogSequentialForward.fog[9].dispatcher externalJobs 3655833
scalar FogSequentialForward.fog[9].dispatcher remoteJobs 3656039
scalar FogSequentialForward.fog[9].dispatcher probeQueries 0
scalar FogSequentialForward.fog[9].dispatcher probeAnswers 0
scalar FogSequentialForward.fog[9].dispatcher droppedJobsSLA 298
scalar FogSequentialForward.fog[9].dispatcher jobs_class_1 3670438
scalar FogSequentialForward.fog[9].dispatcher remoteJobs_class_1 3656039
scalar FogSequentialForward.fog[9].dispatcher localJobs_class_1 14101
scalar FogSequentialForward.fog[9].dispatcher droppedJobsSLA_class_1 298
scalar FogSequentialForward.fog[9].server[0] rho 1
scalar FogSequentialForward.fog[9].server[0] congestionRatio 0
scalar FogSequentialForward.fog[9].server[0] totalJobs 14101
scalar FogSequentialForward.fog[9].server[0] droppedJobsQueue 884
scalar FogSequentialForward.fog[9].server[0] droppedJobsTimout 0
scalar FogSequentialForward.fog[9].server[0] droppedJobsSLA 8402
scalar FogSequentialForward.fog[9].server[0] droppedJobsTotal 9286
scalar FogSequentialForward.fog[10].dispatcher localJobs 14057
scalar FogSequentialForward.fog[10].dispatcher internalJobs 14572
scalar FogSequentialForward.fog[10].dispatcher externalJobs 3658552
scalar FogSequentialForward.fog[10].dispatcher remoteJobs 3658760
scalar FogSequentialForward.fog[10].dispatcher probeQueries 0
scalar FogSequentialForward.fog[10].dispatcher probeAnswers 0
scalar FogSequentialForward.fog[10].dispatcher droppedJobsSLA 307
scalar FogSequentialForward.fog[10].dispatcher jobs_class_1 3673124
scalar FogSequentialForward.fog[10].dispatcher remoteJobs_class_1 3658760
scalar FogSequentialForward.fog[10].dispatcher localJobs_class_1 14057
scalar FogSequentialForward.fog[10].dispatcher droppedJobsSLA_class_1 307
scalar FogSequentialForward.fog[10].server[0] rho 0.99999916553497
scalar FogSequentialForward.fog[10].server[0] congestionRatio 0
scalar FogSequentialForward.fog[10].server[0] totalJobs 14057
scalar FogSequentialForward.fog[10].server[0] droppedJobsQueue 883
scalar FogSequentialForward.fog[10].server[0] droppedJobsTimout 0
scalar FogSequentialForward.fog[10].server[0] droppedJobsSLA 8352
scalar FogSequentialForward.fog[10].server[0] droppedJobsTotal 9235
scalar FogSequentialForward.fog[11].dispatcher localJobs 14077
scalar FogSequentialForward.fog[11].dispatcher internalJobs 14393
scalar FogSequentialForward.fog[11].dispatcher externalJobs 3657741
scalar FogSequentialForward.fog[11].dispatcher remoteJobs 3657758
scalar FogSequentialForward.fog[11].dispatcher probeQueries 0
scalar FogSequentialForward.fog[11].dispatcher probeAnswers 0
scalar FogSequentialForward.fog[11].dispatcher droppedJobsSLA 299
scalar FogSequentialForward.fog[11].dispatcher jobs_class_1 3672134
scalar FogSequentialForward.fog[11].dispatcher remoteJobs_class_1 3657758
scalar FogSequentialForward.fog[11].dispatcher localJobs_class_1 14077
scalar FogSequentialForward.fog[11].dispatcher droppedJobsSLA_class_1 299
scalar FogSequentialForward.fog[11].server[0] rho 0.99989682435989
scalar FogSequentialForward.fog[11].server[0] congestionRatio 0
scalar FogSequentialForward.fog[11].server[0] totalJobs 14077
scalar FogSequentialForward.fog[11].server[0] droppedJobsQueue 883
scalar FogSequentialForward.fog[11].server[0] droppedJobsTimout 0
scalar FogSequentialForward.fog[11].server[0] droppedJobsSLA 8408
scalar FogSequentialForward.fog[11].server[0] droppedJobsTotal 9291
scalar FogSequentialForward.fog[12].dispatcher localJobs 14061
scalar FogSequentialForward.fog[12].dispatcher internalJobs 14287
scalar FogSequentialForward.fog[12].dispatcher externalJobs 3657595
scalar FogSequentialForward.fog[12].dispatcher remoteJobs 3657520
scalar FogSequentialForward.fog[12].dispatcher probeQueries 0
scalar FogSequentialForward.fog[12].dispatcher probeAnswers 0
scalar FogSequentialForward.fog[12].dispatcher droppedJobsSLA 301
scalar FogSequentialForward.fog[12].dispatcher jobs_class_1 3671882
scalar FogSequentialForward.fog[12].dispatcher remoteJobs_class_1 3657520
scalar FogSequentialForward.fog[12].dispatcher localJobs_class_1 14061
scalar FogSequentialForward.fog[12].dispatcher droppedJobsSLA_class_1 301
scalar FogSequentialForward.fog[12].server[0] rho 1
scalar FogSequentialForward.fog[12].server[0] congestionRatio 0
scalar FogSequentialForward.fog[12].server[0] totalJobs 14061
scalar FogSequentialForward.fog[12].server[0] droppedJobsQueue 878
scalar FogSequentialForward.fog[12].server[0] droppedJobsTimout 0
scalar FogSequentialForward.fog[12].server[0] droppedJobsSLA 8378
scalar FogSequentialForward.fog[12].server[0] droppedJobsTotal 9256
scalar FogSequentialForward.fog[13].dispatcher localJobs 14105
scalar FogSequentialForward.fog[13].dispatcher internalJobs 14371
scalar FogSequentialForward.fog[13].dispatcher externalJobs 3661556
scalar FogSequentialForward.fog[13].dispatcher remoteJobs 3661515
scalar FogSequentialForward.fog[13].dispatcher probeQueries 0
scalar FogSequentialForward.fog[13].dispatcher probeAnswers 0
scalar FogSequentialForward.fog[13].dispatcher droppedJobsSLA 307
scalar FogSequentialForward.fog[13].dispatcher jobs_class_1 3675927
scalar FogSequentialForward.fog[13].dispatcher remoteJobs_class_1 3661515
scalar FogSequentialForward.fog[13].dispatcher localJobs_class_1 14105
scalar FogSequentialForward.fog[13].dispatcher droppedJobsSLA_class_1 307
scalar FogSequentialForward.fog[13].server[0] rho 0.99999970197678
scalar FogSequentialForward.fog[13].server[0] congestionRatio 0
scalar FogSequentialForward.fog[13].server[0] totalJobs 14105
scalar FogSequentialForward.fog[13].server[0] droppedJobsQueue 879
scalar FogSequentialForward.fog[13].server[0] droppedJobsTimout 0
scalar FogSequentialForward.fog[13].server[0] droppedJobsSLA 8360
scalar FogSequentialForward.fog[13].server[0] droppedJobsTotal 9239
scalar FogSequentialForward.fog[14].dispatcher localJobs 14097
scalar FogSequentialForward.fog[14].dispatcher internalJobs 14633
scalar FogSequentialForward.fog[14].dispatcher externalJobs 3657278
scalar FogSequentialForward.fog[14].dispatcher remoteJobs 3657519
scalar FogSequentialForward.fog[14].dispatcher probeQueries 0
scalar FogSequentialForward.fog[14].dispatcher probeAnswers 0
scalar FogSequentialForward.fog[14].dispatcher droppedJobsSLA 295
scalar FogSequentialForward.fog[14].dispatcher jobs_class_1 3671911
scalar FogSequentialForward.fog[14].dispatcher remoteJobs_class_1 3657519
scalar FogSequentialForward.fog[14].dispatcher localJobs_class_1 14097
scalar FogSequentialForward.fog[14].dispatcher droppedJobsSLA_class_1 295
scalar FogSequentialForward.fog[14].server[0] rho 0.99999749660492
scalar FogSequentialForward.fog[14].server[0] congestionRatio 0
scalar FogSequentialForward.fog[14].server[0] totalJobs 14097
scalar FogSequentialForward.fog[14].server[0] droppedJobsQueue 880
scalar FogSequentialForward.fog[14].server[0] droppedJobsTimout 0
scalar FogSequentialForward.fog[14].server[0] droppedJobsSLA 8353
scalar FogSequentialForward.fog[14].server[0] droppedJobsTotal 9233
scalar FogSequentialForward.fog[15].dispatcher localJobs 14055
scalar FogSequentialForward.fog[15].dispatcher internalJobs 14365
scalar FogSequentialForward.fog[15].dispatcher externalJobs 3657873
scalar FogSequentialForward.fog[15].dispatcher remoteJobs 3657878
scalar FogSequentialForward.fog[15].dispatcher probeQueries 0
scalar FogSequentialForward.fog[15].dispatcher probeAnswers 0
scalar FogSequentialForward.fog[15].dispatcher droppedJobsSLA 305
scalar FogSequentialForward.fog[15].dispatcher jobs_class_1 3672238
scalar FogSequentialForward.fog[15].dispatcher remoteJobs_class_1 3657878
scalar FogSequentialForward.fog[15].dispatcher localJobs_class_1 14055
scalar FogSequentialForward.fog[15].dispatcher droppedJobsSLA_class_1 305
scalar FogSequentialForward.fog[15].server[0] rho 0.99999976158142
scalar FogSequentialForward.fog[15].server[0] congestionRatio 0
scalar FogSequentialForward.fog[15].server[0] totalJobs 14055
scalar FogSequentialForward.fog[15].server[0] droppedJobsQueue 878
scalar FogSequentialForward.fog[15].server[0] droppedJobsTimout 0
scalar FogSequentialForward.fog[15].server[0] droppedJobsSLA 8336
scalar FogSequentialForward.fog[15].server[0] droppedJobsTotal 9214
scalar FogSequentialForward.fog[16].dispatcher localJobs 14057
scalar FogSequentialForward.fog[16].dispatcher internalJobs 14423
scalar FogSequentialForward.fog[16].dispatcher externalJobs 3659541
scalar FogSequentialForward.fog[16].dispatcher remoteJobs 3659566
scalar FogSequentialForward.fog[16].dispatcher probeQueries 0
scalar FogSequentialForward.fog[16].dispatcher probeAnswers 0
scalar FogSequentialForward.fog[16].dispatcher droppedJobsSLA 341
scalar FogSequentialForward.fog[16].dispatcher jobs_class_1 3673964
scalar FogSequentialForward.fog[16].dispatcher remoteJobs_class_1 3659566
scalar FogSequentialForward.fog[16].dispatcher localJobs_class_1 14057
scalar FogSequentialForward.fog[16].dispatcher droppedJobsSLA_class_1 341
scalar FogSequentialForward.fog[16].server[0] rho 1
scalar FogSequentialForward.fog[16].server[0] congestionRatio 0
scalar FogSequentialForward.fog[16].server[0] totalJobs 14057
scalar FogSequentialForward.fog[16].server[0] droppedJobsQueue 880
scalar FogSequentialForward.fog[16].server[0] droppedJobsTimout 0
scalar FogSequentialForward.fog[16].server[0] droppedJobsSLA 8392
scalar FogSequentialForward.fog[16].server[0] droppedJobsTotal 9272
scalar FogSequentialForward.fog[17].dispatcher localJobs 14111
scalar FogSequentialForward.fog[17].dispatcher internalJobs 14221
scalar FogSequentialForward.fog[17].dispatcher externalJobs 3657458
scalar FogSequentialForward.fog[17].dispatcher remoteJobs 3657268
scalar FogSequentialForward.fog[17].dispatcher probeQueries 0
scalar FogSequentialForward.fog[17].dispatcher probeAnswers 0
scalar FogSequentialForward.fog[17].dispatcher droppedJobsSLA 300
scalar FogSequentialForward.fog[17].dispatcher jobs_class_1 3671679
scalar FogSequentialForward.fog[17].dispatcher remoteJobs_class_1 3657268
scalar FogSequentialForward.fog[17].dispatcher localJobs_class_1 14111
scalar FogSequentialForward.fog[17].dispatcher droppedJobsSLA_class_1 300
scalar FogSequentialForward.fog[17].server[0] rho 1
scalar FogSequentialForward.fog[17].server[0] congestionRatio 0
scalar FogSequentialForward.fog[17].server[0] totalJobs 14111
scalar FogSequentialForward.fog[17].server[0] droppedJobsQueue 884
scalar FogSequentialForward.fog[17].server[0] droppedJobsTimout 0
scalar FogSequentialForward.fog[17].server[0] droppedJobsSLA 8430
scalar FogSequentialForward.fog[17].server[0] droppedJobsTotal 9314
scalar FogSequentialForward.fog[18].dispatcher localJobs 14128
scalar FogSequentialForward.fog[18].dispatcher internalJobs 14117
scalar FogSequentialForward.fog[18].dispatcher externalJobs 3662479
scalar FogSequentialForward.fog[18].dispatcher remoteJobs 3662136
scalar FogSequentialForward.fog[18].dispatcher probeQueries 0
scalar FogSequentialForward.fog[18].dispatcher probeAnswers 0
scalar FogSequentialForward.fog[18].dispatcher droppedJobsSLA 332
scalar FogSequentialForward.fog[18].dispatcher jobs_class_1 3676596
scalar FogSequentialForward.fog[18].dispatcher remoteJobs_class_1 3662136
scalar FogSequentialForward.fog[18].dispatcher localJobs_class_1 14128
scalar FogSequentialForward.fog[18].dispatcher droppedJobsSLA_class_1 332
scalar FogSequentialForward.fog[18].server[0] rho 1
scalar FogSequentialForward.fog[18].server[0] congestionRatio 0
scalar FogSequentialForward.fog[18].server[0] totalJobs 14128
scalar FogSequentialForward.fog[18].server[0] droppedJobsQueue 888
scalar FogSequentialForward.fog[18].server[0] droppedJobsTimout 0
scalar FogSequentialForward.fog[18].server[0] droppedJobsSLA 8414
scalar FogSequentialForward.fog[18].server[0] droppedJobsTotal 9302
scalar FogSequentialForward.fog[19].dispatcher localJobs 14094
scalar FogSequentialForward.fog[19].dispatcher internalJobs 14526
scalar FogSequentialForward.fog[19].dispatcher externalJobs 3656864
scalar FogSequentialForward.fog[19].dispatcher remoteJobs 3656998
scalar FogSequentialForward.fog[19].dispatcher probeQueries 0
scalar FogSequentialForward.fog[19].dispatcher probeAnswers 0
scalar FogSequentialForward.fog[19].dispatcher droppedJobsSLA 298
scalar FogSequentialForward.fog[19].dispatcher jobs_class_1 3671390
scalar FogSequentialForward.fog[19].dispatcher remoteJobs_class_1 3656998
scalar FogSequentialForward.fog[19].dispatcher localJobs_class_1 14094
scalar FogSequentialForward.fog[19].dispatcher droppedJobsSLA_class_1 298
scalar FogSequentialForward.fog[19].server[0] rho 0.99999988079071
scalar FogSequentialForward.fog[19].server[0] congestionRatio 0
scalar FogSequentialForward.fog[19].server[0] totalJobs 14094
scalar FogSequentialForward.fog[19].server[0] droppedJobsQueue 882
scalar FogSequentialForward.fog[19].server[0] droppedJobsTimout 0
scalar FogSequentialForward.fog[19].server[0] droppedJobsSLA 8384
scalar FogSequentialForward.fog[19].server[0] droppedJobsTotal 9266
scalar FogSequentialForward.fog[20].dispatcher localJobs 14134
scalar FogSequentialForward.fog[20].dispatcher internalJobs 14269
scalar FogSequentialForward.fog[20].dispatcher externalJobs 3657418
scalar FogSequentialForward.fog[20].dispatcher remoteJobs 3657227
scalar FogSequentialForward.fog[20].dispatcher probeQueries 0
scalar FogSequentialForward.fog[20].dispatcher probeAnswers 0
scalar FogSequentialForward.fog[20].dispatcher droppedJobsSLA 326
scalar FogSequentialForward.fog[20].dispatcher jobs_class_1 3671687
scalar FogSequentialForward.fog[20].dispatcher remoteJobs_class_1 3657227
scalar FogSequentialForward.fog[20].dispatcher localJobs_class_1 14134
scalar FogSequentialForward.fog[20].dispatcher droppedJobsSLA_class_1 326
scalar FogSequentialForward.fog[20].server[0] rho 1
scalar FogSequentialForward.fog[20].server[0] congestionRatio 0
scalar FogSequentialForward.fog[20].server[0] totalJobs 14134
scalar FogSequentialForward.fog[20].server[0] droppedJobsQueue 884
scalar FogSequentialForward.fog[20].server[0] droppedJobsTimout 0
scalar FogSequentialForward.fog[20].server[0] droppedJobsSLA 8408
scalar FogSequentialForward.fog[20].server[0] droppedJobsTotal 9292
scalar FogSequentialForward.fog[21].dispatcher localJobs 14042
scalar FogSequentialForward.fog[21].dispatcher internalJobs 14467
scalar FogSequentialForward.fog[21].dispatcher externalJobs 3655691
scalar FogSequentialForward.fog[21].dispatcher remoteJobs 3655777
scalar FogSequentialForward.fog[21].dispatcher probeQueries 0
scalar FogSequentialForward.fog[21].dispatcher probeAnswers 0
scalar FogSequentialForward.fog[21].dispatcher droppedJobsSLA 339
scalar FogSequentialForward.fog[21].dispatcher jobs_class_1 3670158
scalar FogSequentialForward.fog[21].dispatcher remoteJobs_class_1 3655777
scalar FogSequentialForward.fog[21].dispatcher localJobs_class_1 14042
scalar FogSequentialForward.fog[21].dispatcher droppedJobsSLA_class_1 339
scalar FogSequentialForward.fog[21].server[0] rho 1
scalar FogSequentialForward.fog[21].server[0] congestionRatio 0
scalar FogSequentialForward.fog[21].server[0] totalJobs 14042
scalar FogSequentialForward.fog[21].server[0] droppedJobsQueue 878
scalar FogSequentialForward.fog[21].server[0] droppedJobsTimout 0
scalar FogSequentialForward.fog[21].server[0] droppedJobsSLA 8386
scalar FogSequentialForward.fog[21].server[0] droppedJobsTotal 9264
scalar FogSequentialForward.fog[22].dispatcher localJobs 14140
scalar FogSequentialForward.fog[22].dispatcher internalJobs 14475
scalar FogSequentialForward.fog[22].dispatcher externalJobs 3654832
scalar FogSequentialForward.fog[22].dispatcher remoteJobs 3654828
scalar FogSequentialForward.fog[22].dispatcher probeQueries 0
scalar FogSequentialForward.fog[22].dispatcher probeAnswers 0
scalar FogSequentialForward.fog[22].dispatcher droppedJobsSLA 339
scalar FogSequentialForward.fog[22].dispatcher jobs_class_1 3669307
scalar FogSequentialForward.fog[22].dispatcher remoteJobs_class_1 3654828
scalar FogSequentialForward.fog[22].dispatcher localJobs_class_1 14140
scalar FogSequentialForward.fog[22].dispatcher droppedJobsSLA_class_1 339
scalar FogSequentialForward.fog[22].server[0] rho 0.99999982118607
scalar FogSequentialForward.fog[22].server[0] congestionRatio 0
scalar FogSequentialForward.fog[22].server[0] totalJobs 14140
scalar FogSequentialForward.fog[22].server[0] droppedJobsQueue 882
scalar FogSequentialForward.fog[22].server[0] droppedJobsTimout 0
scalar FogSequentialForward.fog[22].server[0] droppedJobsSLA 8419
scalar FogSequentialForward.fog[22].server[0] droppedJobsTotal 9301
scalar FogSequentialForward.fog[23].dispatcher localJobs 14093
scalar FogSequentialForward.fog[23].dispatcher internalJobs 14496
scalar FogSequentialForward.fog[23].dispatcher externalJobs 3658194
scalar FogSequentialForward.fog[23].dispatcher remoteJobs 3658296
scalar FogSequentialForward.fog[23].dispatcher probeQueries 0
scalar FogSequentialForward.fog[23].dispatcher probeAnswers 0
scalar FogSequentialForward.fog[23].dispatcher droppedJobsSLA 301
scalar FogSequentialForward.fog[23].dispatcher jobs_class_1 3672690
scalar FogSequentialForward.fog[23].dispatcher remoteJobs_class_1 3658296
scalar FogSequentialForward.fog[23].dispatcher localJobs_class_1 14093
scalar FogSequentialForward.fog[23].dispatcher droppedJobsSLA_class_1 301
scalar FogSequentialForward.fog[23].server[0] rho 0.99999994039536
scalar FogSequentialForward.fog[23].server[0] congestionRatio 0
scalar FogSequentialForward.fog[23].server[0] totalJobs 14093
scalar FogSequentialForward.fog[23].server[0] droppedJobsQueue 883
scalar FogSequentialForward.fog[23].server[0] droppedJobsTimout 0
scalar FogSequentialForward.fog[23].server[0] droppedJobsSLA 8357
scalar FogSequentialForward.fog[23].server[0] droppedJobsTotal 9240
scalar FogSequentialForward.fog[24].dispatcher localJobs 14184
scalar FogSequentialForward.fog[24].dispatcher internalJobs 14347
scalar FogSequentialForward.fog[24].dispatcher externalJobs 3655758
scalar FogSequentialForward.fog[24].dispatcher remoteJobs 3655653
scalar FogSequentialForward.fog[24].dispatcher probeQueries 0
scalar FogSequentialForward.fog[24].dispatcher probeAnswers 0
scalar FogSequentialForward.fog[24].dispatcher droppedJobsSLA 268
scalar FogSequentialForward.fog[24].dispatcher jobs_class_1 3670105
scalar FogSequentialForward.fog[24].dispatcher remoteJobs_class_1 3655653
scalar FogSequentialForward.fog[24].dispatcher localJobs_class_1 14184
scalar FogSequentialForward.fog[24].dispatcher droppedJobsSLA_class_1 268
scalar FogSequentialForward.fog[24].server[0] rho 0.99999904632568
scalar FogSequentialForward.fog[24].server[0] congestionRatio 0
scalar FogSequentialForward.fog[24].server[0] totalJobs 14184
scalar FogSequentialForward.fog[24].server[0] droppedJobsQueue 889
scalar FogSequentialForward.fog[24].server[0] droppedJobsTimout 0
scalar FogSequentialForward.fog[24].server[0] droppedJobsSLA 8417
scalar FogSequentialForward.fog[24].server[0] droppedJobsTotal 9306
scalar FogSequentialForward.fog[25].dispatcher localJobs 14157
scalar FogSequentialForward.fog[25].dispatcher internalJobs 14452
scalar FogSequentialForward.fog[25].dispatcher externalJobs 3658342
scalar FogSequentialForward.fog[25].dispatcher remoteJobs 3658322
scalar FogSequentialForward.fog[25].dispatcher probeQueries 0
scalar FogSequentialForward.fog[25].dispatcher probeAnswers 0
scalar FogSequentialForward.fog[25].dispatcher droppedJobsSLA 315
scalar FogSequentialForward.fog[25].dispatcher jobs_class_1 3672794
scalar FogSequentialForward.fog[25].dispatcher remoteJobs_class_1 3658322
scalar FogSequentialForward.fog[25].dispatcher localJobs_class_1 14157
scalar FogSequentialForward.fog[25].dispatcher droppedJobsSLA_class_1 315
scalar FogSequentialForward.fog[25].server[0] rho 1
scalar FogSequentialForward.fog[25].server[0] congestionRatio 0
scalar FogSequentialForward.fog[25].server[0] totalJobs 14157
scalar FogSequentialForward.fog[25].server[0] droppedJobsQueue 889
scalar FogSequentialForward.fog[25].server[0] droppedJobsTimout 0
scalar FogSequentialForward.fog[25].server[0] droppedJobsSLA 8405
scalar FogSequentialForward.fog[25].server[0] droppedJobsTotal 9294
scalar FogSequentialForward.fog[26].dispatcher localJobs 14070
scalar FogSequentialForward.fog[26].dispatcher internalJobs 14483
scalar FogSequentialForward.fog[26].dispatcher externalJobs 3655653
scalar FogSequentialForward.fog[26].dispatcher remoteJobs 3655766
scalar FogSequentialForward.fog[26].dispatcher probeQueries 0
scalar FogSequentialForward.fog[26].dispatcher probeAnswers 0
scalar FogSequentialForward.fog[26].dispatcher droppedJobsSLA 300
scalar FogSequentialForward.fog[26].dispatcher jobs_class_1 3670136
scalar FogSequentialForward.fog[26].dispatcher remoteJobs_class_1 3655766
scalar FogSequentialForward.fog[26].dispatcher localJobs_class_1 14070
scalar FogSequentialForward.fog[26].dispatcher droppedJobsSLA_class_1 300
scalar FogSequentialForward.fog[26].server[0] rho 1
scalar FogSequentialForward.fog[26].server[0] congestionRatio 0
scalar FogSequentialForward.fog[26].server[0] totalJobs 14070
scalar FogSequentialForward.fog[26].server[0] droppedJobsQueue 881
scalar FogSequentialForward.fog[26].server[0] droppedJobsTimout 0
scalar FogSequentialForward.fog[26].server[0] droppedJobsSLA 8408
scalar FogSequentialForward.fog[26].server[0] droppedJobsTotal 9289
scalar FogSequentialForward.fog[27].dispatcher localJobs 14117
scalar FogSequentialForward.fog[27].dispatcher internalJobs 14574
scalar FogSequentialForward.fog[27].dispatcher externalJobs 3658743
scalar FogSequentialForward.fog[27].dispatcher remoteJobs 3658893
scalar FogSequentialForward.fog[27].dispatcher probeQueries 0
scalar FogSequentialForward.fog[27].dispatcher probeAnswers 0
scalar FogSequentialForward.fog[27].dispatcher droppedJobsSLA 307
scalar FogSequentialForward.fog[27].dispatcher jobs_class_1 3673317
scalar FogSequentialForward.fog[27].dispatcher remoteJobs_class_1 3658893
scalar FogSequentialForward.fog[27].dispatcher localJobs_class_1 14117
scalar FogSequentialForward.fog[27].dispatcher droppedJobsSLA_class_1 307
scalar FogSequentialForward.fog[27].server[0] rho 0.99999994039536
scalar FogSequentialForward.fog[27].server[0] congestionRatio 0
scalar FogSequentialForward.fog[27].server[0] totalJobs 14117
scalar FogSequentialForward.fog[27].server[0] droppedJobsQueue 885
scalar FogSequentialForward.fog[27].server[0] droppedJobsTimout 0
scalar FogSequentialForward.fog[27].server[0] droppedJobsSLA 8422
scalar FogSequentialForward.fog[27].server[0] droppedJobsTotal 9307
scalar FogSequentialForward.fog[28].dispatcher localJobs 14108
scalar FogSequentialForward.fog[28].dispatcher internalJobs 14619
scalar FogSequentialForward.fog[28].dispatcher externalJobs 3657135
scalar FogSequentialForward.fog[28].dispatcher remoteJobs 3657341
scalar FogSequentialForward.fog[28].dispatcher probeQueries 0
scalar FogSequentialForward.fog[28].dispatcher probeAnswers 0
scalar FogSequentialForward.fog[28].dispatcher droppedJobsSLA 305
scalar FogSequentialForward.fog[28].dispatcher jobs_class_1 3671754
scalar FogSequentialForward.fog[28].dispatcher remoteJobs_class_1 3657341
scalar FogSequentialForward.fog[28].dispatcher localJobs_class_1 14108
scalar FogSequentialForward.fog[28].dispatcher droppedJobsSLA_class_1 305
scalar FogSequentialForward.fog[28].server[0] rho 1
scalar FogSequentialForward.fog[28].server[0] congestionRatio 0
scalar FogSequentialForward.fog[28].server[0] totalJobs 14108
scalar FogSequentialForward.fog[28].server[0] droppedJobsQueue 884
scalar FogSequentialForward.fog[28].server[0] droppedJobsTimout 0
scalar FogSequentialForward.fog[28].server[0] droppedJobsSLA 8394
scalar FogSequentialForward.fog[28].server[0] droppedJobsTotal 9278
scalar FogSequentialForward.fog[29].dispatcher localJobs 14096
scalar FogSequentialForward.fog[29].dispatcher internalJobs 14221
scalar FogSequentialForward.fog[29].dispatcher externalJobs 3659338
scalar FogSequentialForward.fog[29].dispatcher remoteJobs 3659148
scalar FogSequentialForward.fog[29].dispatcher probeQueries 0
scalar FogSequentialForward.fog[29].dispatcher probeAnswers 0
scalar FogSequentialForward.fog[29].dispatcher droppedJobsSLA 315
scalar FogSequentialForward.fog[29].dispatcher jobs_class_1 3673559
scalar FogSequentialForward.fog[29].dispatcher remoteJobs_class_1 3659148
scalar FogSequentialForward.fog[29].dispatcher localJobs_class_1 14096
scalar FogSequentialForward.fog[29].dispatcher droppedJobsSLA_class_1 315
scalar FogSequentialForward.fog[29].server[0] rho 0.99999976158142
scalar FogSequentialForward.fog[29].server[0] congestionRatio 0
scalar FogSequentialForward.fog[29].server[0] totalJobs 14096
scalar FogSequentialForward.fog[29].server[0] droppedJobsQueue 883
scalar FogSequentialForward.fog[29].server[0] droppedJobsTimout 0
scalar FogSequentialForward.fog[29].server[0] droppedJobsSLA 8352
scalar FogSequentialForward.fog[29].server[0] droppedJobsTotal 9235
scalar FogSequentialForward.fog[30].dispatcher localJobs 14104
scalar FogSequentialForward.fog[30].dispatcher internalJobs 14291
scalar FogSequentialForward.fog[30].dispatcher externalJobs 3657559
scalar FogSequentialForward.fog[30].dispatcher remoteJobs 3657438
scalar FogSequentialForward.fog[30].dispatcher probeQueries 0
scalar FogSequentialForward.fog[30].dispatcher probeAnswers 0
scalar FogSequentialForward.fog[30].dispatcher droppedJobsSLA 308
scalar FogSequentialForward.fog[30].dispatcher jobs_class_1 3671850
scalar FogSequentialForward.fog[30].dispatcher remoteJobs_class_1 3657438
scalar FogSequentialForward.fog[30].dispatcher localJobs_class_1 14104
scalar FogSequentialForward.fog[30].dispatcher droppedJobsSLA_class_1 308
scalar FogSequentialForward.fog[30].server[0] rho 1
scalar FogSequentialForward.fog[30].server[0] congestionRatio 0
scalar FogSequentialForward.fog[30].server[0] totalJobs 14104
scalar FogSequentialForward.fog[30].server[0] droppedJobsQueue 882
scalar FogSequentialForward.fog[30].server[0] droppedJobsTimout 0
scalar FogSequentialForward.fog[30].server[0] droppedJobsSLA 8363
scalar FogSequentialForward.fog[30].server[0] droppedJobsTotal 9245
scalar FogSequentialForward.fog[31].dispatcher localJobs 14120
scalar FogSequentialForward.fog[31].dispatcher internalJobs 14485
scalar FogSequentialForward.fog[31].dispatcher externalJobs 3657994
scalar FogSequentialForward.fog[31].dispatcher remoteJobs 3658045
scalar FogSequentialForward.fog[31].dispatcher probeQueries 0
scalar FogSequentialForward.fog[31].dispatcher probeAnswers 0
scalar FogSequentialForward.fog[31].dispatcher droppedJobsSLA 314
scalar FogSequentialForward.fog[31].dispatcher jobs_class_1 3672479
scalar FogSequentialForward.fog[31].dispatcher remoteJobs_class_1 3658045
scalar FogSequentialForward.fog[31].dispatcher localJobs_class_1 14120
scalar FogSequentialForward.fog[31].dispatcher droppedJobsSLA_class_1 314
scalar FogSequentialForward.fog[31].server[0] rho 0.99999982118607
scalar FogSequentialForward.fog[31].server[0] congestionRatio 0
scalar FogSequentialForward.fog[31].server[0] totalJobs 14120
scalar FogSequentialForward.fog[31].server[0] droppedJobsQueue 885
scalar FogSequentialForward.fog[31].server[0] droppedJobsTimout 0
scalar FogSequentialForward.fog[31].server[0] droppedJobsSLA 8387
scalar FogSequentialForward.fog[31].server[0] droppedJobsTotal 9272
scalar FogSequentialForward.fog[32].dispatcher localJobs 14160
scalar FogSequentialForward.fog[32].dispatcher internalJobs 14264
scalar FogSequentialForward.fog[32].dispatcher externalJobs 3659887
scalar FogSequentialForward.fog[32].dispatcher remoteJobs 3659672
scalar FogSequentialForward.fog[32].dispatcher probeQueries 0
scalar FogSequentialForward.fog[32].dispatcher probeAnswers 0
scalar FogSequentialForward.fog[32].dispatcher droppedJobsSLA 319
scalar FogSequentialForward.fog[32].dispatcher jobs_class_1 3674151
scalar FogSequentialForward.fog[32].dispatcher remoteJobs_class_1 3659672
scalar FogSequentialForward.fog[32].dispatcher localJobs_class_1 14160
scalar FogSequentialForward.fog[32].dispatcher droppedJobsSLA_class_1 319
scalar FogSequentialForward.fog[32].server[0] rho 1
scalar FogSequentialForward.fog[32].server[0] congestionRatio 0
scalar FogSequentialForward.fog[32].server[0] totalJobs 14160
scalar FogSequentialForward.fog[32].server[0] droppedJobsQueue 888
scalar FogSequentialForward.fog[32].server[0] droppedJobsTimout 0
scalar FogSequentialForward.fog[32].server[0] droppedJobsSLA 8427
scalar FogSequentialForward.fog[32].server[0] droppedJobsTotal 9315
scalar FogSequentialForward.fog[33].dispatcher localJobs 14047
scalar FogSequentialForward.fog[33].dispatcher internalJobs 14280
scalar FogSequentialForward.fog[33].dispatcher externalJobs 3658679
scalar FogSequentialForward.fog[33].dispatcher remoteJobs 3658603
scalar FogSequentialForward.fog[33].dispatcher probeQueries 0
scalar FogSequentialForward.fog[33].dispatcher probeAnswers 0
scalar FogSequentialForward.fog[33].dispatcher droppedJobsSLA 309
scalar FogSequentialForward.fog[33].dispatcher jobs_class_1 3672959
scalar FogSequentialForward.fog[33].dispatcher remoteJobs_class_1 3658603
scalar FogSequentialForward.fog[33].dispatcher localJobs_class_1 14047
scalar FogSequentialForward.fog[33].dispatcher droppedJobsSLA_class_1 309
scalar FogSequentialForward.fog[33].server[0] rho 1
scalar FogSequentialForward.fog[33].server[0] congestionRatio 0
scalar FogSequentialForward.fog[33].server[0] totalJobs 14047
scalar FogSequentialForward.fog[33].server[0] droppedJobsQueue 879
scalar FogSequentialForward.fog[33].server[0] droppedJobsTimout 0
scalar FogSequentialForward.fog[33].server[0] droppedJobsSLA 8338
scalar FogSequentialForward.fog[33].server[0] droppedJobsTotal 9217
scalar FogSequentialForward.fog[34].dispatcher localJobs 14059
scalar FogSequentialForward.fog[34].dispatcher internalJobs 14538
scalar FogSequentialForward.fog[34].dispatcher externalJobs 3657913
scalar FogSequentialForward.fog[34].dispatcher remoteJobs 3658093
scalar FogSequentialForward.fog[34].dispatcher probeQueries 0
scalar FogSequentialForward.fog[34].dispatcher probeAnswers 0
scalar FogSequentialForward.fog[34].dispatcher droppedJobsSLA 299
scalar FogSequentialForward.fog[34].dispatcher jobs_class_1 3672451
scalar FogSequentialForward.fog[34].dispatcher remoteJobs_class_1 3658093
scalar FogSequentialForward.fog[34].dispatcher localJobs_class_1 14059
scalar FogSequentialForward.fog[34].dispatcher droppedJobsSLA_class_1 299
scalar FogSequentialForward.fog[34].server[0] rho 1
scalar FogSequentialForward.fog[34].server[0] congestionRatio 0
scalar FogSequentialForward.fog[34].server[0] totalJobs 14059
scalar FogSequentialForward.fog[34].server[0] droppedJobsQueue 879
scalar FogSequentialForward.fog[34].server[0] droppedJobsTimout 0
scalar FogSequentialForward.fog[34].server[0] droppedJobsSLA 8333
scalar FogSequentialForward.fog[34].server[0] droppedJobsTotal 9212
scalar FogSequentialForward.fog[35].dispatcher localJobs 14074
scalar FogSequentialForward.fog[35].dispatcher internalJobs 14362
scalar FogSequentialForward.fog[35].dispatcher externalJobs 3657354
scalar FogSequentialForward.fog[35].dispatcher remoteJobs 3657333
scalar FogSequentialForward.fog[35].dispatcher probeQueries 0
scalar FogSequentialForward.fog[35].dispatcher probeAnswers 0
scalar FogSequentialForward.fog[35].dispatcher droppedJobsSLA 309
scalar FogSequentialForward.fog[35].dispatcher jobs_class_1 3671716
scalar FogSequentialForward.fog[35].dispatcher remoteJobs_class_1 3657333
scalar FogSequentialForward.fog[35].dispatcher localJobs_class_1 14074
scalar FogSequentialForward.fog[35].dispatcher droppedJobsSLA_class_1 309
scalar FogSequentialForward.fog[35].server[0] rho 1
scalar FogSequentialForward.fog[35].server[0] congestionRatio 0
scalar FogSequentialForward.fog[35].server[0] totalJobs 14074
scalar FogSequentialForward.fog[35].server[0] droppedJobsQueue 884
scalar FogSequentialForward.fog[35].server[0] droppedJobsTimout 0
scalar FogSequentialForward.fog[35].server[0] droppedJobsSLA 8359
scalar FogSequentialForward.fog[35].server[0] droppedJobsTotal 9243
scalar FogSequentialForward.fog[36].dispatcher localJobs 14085
scalar FogSequentialForward.fog[36].dispatcher internalJobs 14323
scalar FogSequentialForward.fog[36].dispatcher externalJobs 3655385
scalar FogSequentialForward.fog[36].dispatcher remoteJobs 3655315
scalar FogSequentialForward.fog[36].dispatcher probeQueries 0
scalar FogSequentialForward.fog[36].dispatcher probeAnswers 0
scalar FogSequentialForward.fog[36].dispatcher droppedJobsSLA 308
scalar FogSequentialForward.fog[36].dispatcher jobs_class_1 3669708
scalar FogSequentialForward.fog[36].dispatcher remoteJobs_class_1 3655315
scalar FogSequentialForward.fog[36].dispatcher localJobs_class_1 14085
scalar FogSequentialForward.fog[36].dispatcher droppedJobsSLA_class_1 308
scalar FogSequentialForward.fog[36].server[0] rho 0.99999874830246
scalar FogSequentialForward.fog[36].server[0] congestionRatio 0
scalar FogSequentialForward.fog[36].server[0] totalJobs 14085
scalar FogSequentialForward.fog[36].server[0] droppedJobsQueue 878
scalar FogSequentialForward.fog[36].server[0] droppedJobsTimout 0
scalar FogSequentialForward.fog[36].server[0] droppedJobsSLA 8398
scalar FogSequentialForward.fog[36].server[0] droppedJobsTotal 9276
scalar FogSequentialForward.fog[37].dispatcher localJobs 14085
scalar FogSequentialForward.fog[37].dispatcher internalJobs 14385
scalar FogSequentialForward.fog[37].dispatcher externalJobs 3659259
scalar FogSequentialForward.fog[37].dispatcher remoteJobs 3659251
scalar FogSequentialForward.fog[37].dispatcher probeQueries 0
scalar FogSequentialForward.fog[37].dispatcher probeAnswers 0
scalar FogSequentialForward.fog[37].dispatcher droppedJobsSLA 308
scalar FogSequentialForward.fog[37].dispatcher jobs_class_1 3673644
scalar FogSequentialForward.fog[37].dispatcher remoteJobs_class_1 3659251
scalar FogSequentialForward.fog[37].dispatcher localJobs_class_1 14085
scalar FogSequentialForward.fog[37].dispatcher droppedJobsSLA_class_1 308
scalar FogSequentialForward.fog[37].server[0] rho 1
scalar FogSequentialForward.fog[37].server[0] congestionRatio 0
scalar FogSequentialForward.fog[37].server[0] totalJobs 14085
scalar FogSequentialForward.fog[37].server[0] droppedJobsQueue 882
scalar FogSequentialForward.fog[37].server[0] droppedJobsTimout 0
scalar FogSequentialForward.fog[37].server[0] droppedJobsSLA 8313
scalar FogSequentialForward.fog[37].server[0] droppedJobsTotal 9195
scalar FogSequentialForward.fog[38].dispatcher localJobs 14137
scalar FogSequentialForward.fog[38].dispatcher internalJobs 14549
scalar FogSequentialForward.fog[38].dispatcher externalJobs 3654602
scalar FogSequentialForward.fog[38].dispatcher remoteJobs 3654704
scalar FogSequentialForward.fog[38].dispatcher probeQueries 0
scalar FogSequentialForward.fog[38].dispatcher probeAnswers 0
scalar FogSequentialForward.fog[38].dispatcher droppedJobsSLA 310
scalar FogSequentialForward.fog[38].dispatcher jobs_class_1 3669151
scalar FogSequentialForward.fog[38].dispatcher remoteJobs_class_1 3654704
scalar FogSequentialForward.fog[38].dispatcher localJobs_class_1 14137
scalar FogSequentialForward.fog[38].dispatcher droppedJobsSLA_class_1 310
scalar FogSequentialForward.fog[38].server[0] rho 1
scalar FogSequentialForward.fog[38].server[0] congestionRatio 0
scalar FogSequentialForward.fog[38].server[0] totalJobs 14137
scalar FogSequentialForward.fog[38].server[0] droppedJobsQueue 889
scalar FogSequentialForward.fog[38].server[0] droppedJobsTimout 0
scalar FogSequentialForward.fog[38].server[0] droppedJobsSLA 8367
scalar FogSequentialForward.fog[38].server[0] droppedJobsTotal 9256
scalar FogSequentialForward.fog[39].dispatcher localJobs 14080
scalar FogSequentialForward.fog[39].dispatcher internalJobs 14407
scalar FogSequentialForward.fog[39].dispatcher externalJobs 3657867
scalar FogSequentialForward.fog[39].dispatcher remoteJobs 3657893
scalar FogSequentialForward.fog[39].dispatcher probeQueries 0
scalar FogSequentialForward.fog[39].dispatcher probeAnswers 0
scalar FogSequentialForward.fog[39].dispatcher droppedJobsSLA 301
scalar FogSequentialForward.fog[39].dispatcher jobs_class_1 3672274
scalar FogSequentialForward.fog[39].dispatcher remoteJobs_class_1 3657893
scalar FogSequentialForward.fog[39].dispatcher localJobs_class_1 14080
scalar FogSequentialForward.fog[39].dispatcher droppedJobsSLA_class_1 301
scalar FogSequentialForward.fog[39].server[0] rho 1
scalar FogSequentialForward.fog[39].server[0] congestionRatio 0
scalar FogSequentialForward.fog[39].server[0] totalJobs 14080
scalar FogSequentialForward.fog[39].server[0] droppedJobsQueue 881
scalar FogSequentialForward.fog[39].server[0] droppedJobsTimout 0
scalar FogSequentialForward.fog[39].server[0] droppedJobsSLA 8366
scalar FogSequentialForward.fog[39].server[0] droppedJobsTotal 9247
scalar FogSequentialForward.fog[40].dispatcher localJobs 14057
scalar FogSequentialForward.fog[40].dispatcher internalJobs 14380
scalar FogSequentialForward.fog[40].dispatcher externalJobs 3657113
scalar FogSequentialForward.fog[40].dispatcher remoteJobs 3657148
scalar FogSequentialForward.fog[40].dispatcher probeQueries 0
scalar FogSequentialForward.fog[40].dispatcher probeAnswers 0
scalar FogSequentialForward.fog[40].dispatcher droppedJobsSLA 288
scalar FogSequentialForward.fog[40].dispatcher jobs_class_1 3671493
scalar FogSequentialForward.fog[40].dispatcher remoteJobs_class_1 3657148
scalar FogSequentialForward.fog[40].dispatcher localJobs_class_1 14057
scalar FogSequentialForward.fog[40].dispatcher droppedJobsSLA_class_1 288
scalar FogSequentialForward.fog[40].server[0] rho 1
scalar FogSequentialForward.fog[40].server[0] congestionRatio 0
scalar FogSequentialForward.fog[40].server[0] totalJobs 14057
scalar FogSequentialForward.fog[40].server[0] droppedJobsQueue 881
scalar FogSequentialForward.fog[40].server[0] droppedJobsTimout 0
scalar FogSequentialForward.fog[40].server[0] droppedJobsSLA 8319
scalar FogSequentialForward.fog[40].server[0] droppedJobsTotal 9200
scalar FogSequentialForward.fog[41].dispatcher localJobs 14109
scalar FogSequentialForward.fog[41].dispatcher internalJobs 14549
scalar FogSequentialForward.fog[41].dispatcher externalJobs 3656966
scalar FogSequentialForward.fog[41].dispatcher remoteJobs 3657103
scalar FogSequentialForward.fog[41].dispatcher probeQueries 0
scalar FogSequentialForward.fog[41].dispatcher probeAnswers 0
scalar FogSequentialForward.fog[41].dispatcher droppedJobsSLA 303
scalar FogSequentialForward.fog[41].dispatcher jobs_class_1 3671515
scalar FogSequentialForward.fog[41].dispatcher remoteJobs_class_1 3657103
scalar FogSequentialForward.fog[41].dispatcher localJobs_class_1 14109
scalar FogSequentialForward.fog[41].dispatcher droppedJobsSLA_class_1 303
scalar FogSequentialForward.fog[41].server[0] rho 0.99999994039536
scalar FogSequentialForward.fog[41].server[0] congestionRatio 0
scalar FogSequentialForward.fog[41].server[0] totalJobs 14109
scalar FogSequentialForward.fog[41].server[0] droppedJobsQueue 883
scalar FogSequentialForward.fog[41].server[0] droppedJobsTimout 0
scalar FogSequentialForward.fog[41].server[0] droppedJobsSLA 8415
scalar FogSequentialForward.fog[41].server[0] droppedJobsTotal 9298
scalar FogSequentialForward.fog[42].dispatcher localJobs 14113
scalar FogSequentialForward.fog[42].dispatcher internalJobs 14400
scalar FogSequentialForward.fog[42].dispatcher externalJobs 3659044
scalar FogSequentialForward.fog[42].dispatcher remoteJobs 3659030
scalar FogSequentialForward.fog[42].dispatcher probeQueries 0
scalar FogSequentialForward.fog[42].dispatcher probeAnswers 0
scalar FogSequentialForward.fog[42].dispatcher droppedJobsSLA 301
scalar FogSequentialForward.fog[42].dispatcher jobs_class_1 3673444
scalar FogSequentialForward.fog[42].dispatcher remoteJobs_class_1 3659030
scalar FogSequentialForward.fog[42].dispatcher localJobs_class_1 14113
scalar FogSequentialForward.fog[42].dispatcher droppedJobsSLA_class_1 301
scalar FogSequentialForward.fog[42].server[0] rho 1
scalar FogSequentialForward.fog[42].server[0] congestionRatio 0
scalar FogSequentialForward.fog[42].server[0] totalJobs 14113
scalar FogSequentialForward.fog[42].server[0] droppedJobsQueue 885
scalar FogSequentialForward.fog[42].server[0] droppedJobsTimout 0
scalar FogSequentialForward.fog[42].server[0] droppedJobsSLA 8420
scalar FogSequentialForward.fog[42].server[0] droppedJobsTotal 9305
scalar FogSequentialForward.fog[43].dispatcher localJobs 14046
scalar FogSequentialForward.fog[43].dispatcher internalJobs 14296
scalar FogSequentialForward.fog[43].dispatcher externalJobs 3654718
scalar FogSequentialForward.fog[43].dispatcher remoteJobs 3654686
scalar FogSequentialForward.fog[43].dispatcher probeQueries 0
scalar FogSequentialForward.fog[43].dispatcher probeAnswers 0
scalar FogSequentialForward.fog[43].dispatcher droppedJobsSLA 282
scalar FogSequentialForward.fog[43].dispatcher jobs_class_1 3669014
scalar FogSequentialForward.fog[43].dispatcher remoteJobs_class_1 3654686
scalar FogSequentialForward.fog[43].dispatcher localJobs_class_1 14046
scalar FogSequentialForward.fog[43].dispatcher droppedJobsSLA_class_1 282
scalar FogSequentialForward.fog[43].server[0] rho 0.99999856948853
scalar FogSequentialForward.fog[43].server[0] congestionRatio 0
scalar FogSequentialForward.fog[43].server[0] totalJobs 14046
scalar FogSequentialForward.fog[43].server[0] droppedJobsQueue 879
scalar FogSequentialForward.fog[43].server[0] droppedJobsTimout 0
scalar FogSequentialForward.fog[43].server[0] droppedJobsSLA 8336
scalar FogSequentialForward.fog[43].server[0] droppedJobsTotal 9215
scalar FogSequentialForward.fog[44].dispatcher localJobs 14141
scalar FogSequentialForward.fog[44].dispatcher internalJobs 14666
scalar FogSequentialForward.fog[44].dispatcher externalJobs 3655981
scalar FogSequentialForward.fog[44].dispatcher remoteJobs 3656219
scalar FogSequentialForward.fog[44].dispatcher probeQueries 0
scalar FogSequentialForward.fog[44].dispatcher probeAnswers 0
scalar FogSequentialForward.fog[44].dispatcher droppedJobsSLA 287
scalar FogSequentialForward.fog[44].dispatcher jobs_class_1 3670647
scalar FogSequentialForward.fog[44].dispatcher remoteJobs_class_1 3656219
scalar FogSequentialForward.fog[44].dispatcher localJobs_class_1 14141
scalar FogSequentialForward.fog[44].dispatcher droppedJobsSLA_class_1 287
scalar FogSequentialForward.fog[44].server[0] rho 1
scalar FogSequentialForward.fog[44].server[0] congestionRatio 0
scalar FogSequentialForward.fog[44].server[0] totalJobs 14141
scalar FogSequentialForward.fog[44].server[0] droppedJobsQueue 888
scalar FogSequentialForward.fog[44].server[0] droppedJobsTimout 0
scalar FogSequentialForward.fog[44].server[0] droppedJobsSLA 8433
scalar FogSequentialForward.fog[44].server[0] droppedJobsTotal 9321
scalar FogSequentialForward.fog[45].dispatcher localJobs 14051
scalar FogSequentialForward.fog[45].dispatcher internalJobs 14325
scalar FogSequentialForward.fog[45].dispatcher externalJobs 3656185
scalar FogSequentialForward.fog[45].dispatcher remoteJobs 3656196
scalar FogSequentialForward.fog[45].dispatcher probeQueries 0
scalar FogSequentialForward.fog[45].dispatcher probeAnswers 0
scalar FogSequentialForward.fog[45].dispatcher droppedJobsSLA 263
scalar FogSequentialForward.fog[45].dispatcher jobs_class_1 3670510
scalar FogSequentialForward.fog[45].dispatcher remoteJobs_class_1 3656196
scalar FogSequentialForward.fog[45].dispatcher localJobs_class_1 14051
scalar FogSequentialForward.fog[45].dispatcher droppedJobsSLA_class_1 263
scalar FogSequentialForward.fog[45].server[0] rho 1
scalar FogSequentialForward.fog[45].server[0] congestionRatio 0
scalar FogSequentialForward.fog[45].server[0] totalJobs 14051
scalar FogSequentialForward.fog[45].server[0] droppedJobsQueue 877
scalar FogSequentialForward.fog[45].server[0] droppedJobsTimout 0
scalar FogSequentialForward.fog[45].server[0] droppedJobsSLA 8343
scalar FogSequentialForward.fog[45].server[0] droppedJobsTotal 9220
scalar FogSequentialForward.fog[46].dispatcher localJobs 14091
scalar FogSequentialForward.fog[46].dispatcher internalJobs 14166
scalar FogSequentialForward.fog[46].dispatcher externalJobs 3655938
scalar FogSequentialForward.fog[46].dispatcher remoteJobs 3655705
scalar FogSequentialForward.fog[46].dispatcher probeQueries 0
scalar FogSequentialForward.fog[46].dispatcher probeAnswers 0
scalar FogSequentialForward.fog[46].dispatcher droppedJobsSLA 308
scalar FogSequentialForward.fog[46].dispatcher jobs_class_1 3670104
scalar FogSequentialForward.fog[46].dispatcher remoteJobs_class_1 3655705
scalar FogSequentialForward.fog[46].dispatcher localJobs_class_1 14091
scalar FogSequentialForward.fog[46].dispatcher droppedJobsSLA_class_1 308
scalar FogSequentialForward.fog[46].server[0] rho 0.99999940395355
scalar FogSequentialForward.fog[46].server[0] congestionRatio 0
scalar FogSequentialForward.fog[46].server[0] totalJobs 14091
scalar FogSequentialForward.fog[46].server[0] droppedJobsQueue 881
scalar FogSequentialForward.fog[46].server[0] droppedJobsTimout 0
scalar FogSequentialForward.fog[46].server[0] droppedJobsSLA 8379
scalar FogSequentialForward.fog[46].server[0] droppedJobsTotal 9260
scalar FogSequentialForward.fog[47].dispatcher localJobs 14074
scalar FogSequentialForward.fog[47].dispatcher internalJobs 14586
scalar FogSequentialForward.fog[47].dispatcher externalJobs 3659756
scalar FogSequentialForward.fog[47].dispatcher remoteJobs 3659952
scalar FogSequentialForward.fog[47].dispatcher probeQueries 0
scalar FogSequentialForward.fog[47].dispatcher probeAnswers 0
scalar FogSequentialForward.fog[47].dispatcher droppedJobsSLA 316
scalar FogSequentialForward.fog[47].dispatcher jobs_class_1 3674342
scalar FogSequentialForward.fog[47].dispatcher remoteJobs_class_1 3659952
scalar FogSequentialForward.fog[47].dispatcher localJobs_class_1 14074
scalar FogSequentialForward.fog[47].dispatcher droppedJobsSLA_class_1 316
scalar FogSequentialForward.fog[47].server[0] rho 0.99999874830246
scalar FogSequentialForward.fog[47].server[0] congestionRatio 0
scalar FogSequentialForward.fog[47].server[0] totalJobs 14074
scalar FogSequentialForward.fog[47].server[0] droppedJobsQueue 883
scalar FogSequentialForward.fog[47].server[0] droppedJobsTimout 0
scalar FogSequentialForward.fog[47].server[0] droppedJobsSLA 8407
scalar FogSequentialForward.fog[47].server[0] droppedJobsTotal 9290
scalar FogSequentialForward.fog[48].dispatcher localJobs 14089
scalar FogSequentialForward.fog[48].dispatcher internalJobs 14509
scalar FogSequentialForward.fog[48].dispatcher externalJobs 3656559
scalar FogSequentialForward.fog[48].dispatcher remoteJobs 3656648
scalar FogSequentialForward.fog[48].dispatcher probeQueries 0
scalar FogSequentialForward.fog[48].dispatcher probeAnswers 0
scalar FogSequentialForward.fog[48].dispatcher droppedJobsSLA 331
scalar FogSequentialForward.fog[48].dispatcher jobs_class_1 3671068
scalar FogSequentialForward.fog[48].dispatcher remoteJobs_class_1 3656648
scalar FogSequentialForward.fog[48].dispatcher localJobs_class_1 14089
scalar FogSequentialForward.fog[48].dispatcher droppedJobsSLA_class_1 331
scalar FogSequentialForward.fog[48].server[0] rho 1
scalar FogSequentialForward.fog[48].server[0] congestionRatio 0
scalar FogSequentialForward.fog[48].server[0] totalJobs 14089
scalar FogSequentialForward.fog[48].server[0] droppedJobsQueue 885
scalar FogSequentialForward.fog[48].server[0] droppedJobsTimout 0
scalar FogSequentialForward.fog[48].server[0] droppedJobsSLA 8335
scalar FogSequentialForward.fog[48].server[0] droppedJobsTotal 9220
scalar FogSequentialForward.fog[49].dispatcher localJobs 14207
scalar FogSequentialForward.fog[49].dispatcher internalJobs 14520
scalar FogSequentialForward.fog[49].dispatcher externalJobs 3657869
scalar FogSequentialForward.fog[49].dispatcher remoteJobs 3657861
scalar FogSequentialForward.fog[49].dispatcher probeQueries 0
scalar FogSequentialForward.fog[49].dispatcher probeAnswers 0
scalar FogSequentialForward.fog[49].dispatcher droppedJobsSLA 321
scalar FogSequentialForward.fog[49].dispatcher jobs_class_1 3672389
scalar FogSequentialForward.fog[49].dispatcher remoteJobs_class_1 3657861
scalar FogSequentialForward.fog[49].dispatcher localJobs_class_1 14207
scalar FogSequentialForward.fog[49].dispatcher droppedJobsSLA_class_1 321
scalar FogSequentialForward.fog[49].server[0] rho 0.99999988079071
scalar FogSequentialForward.fog[49].server[0] congestionRatio 0
scalar FogSequentialForward.fog[49].server[0] totalJobs 14207
scalar FogSequentialForward.fog[49].server[0] droppedJobsQueue 892
scalar FogSequentialForward.fog[49].server[0] droppedJobsTimout 0
scalar FogSequentialForward.fog[49].server[0] droppedJobsSLA 8552
scalar FogSequentialForward.fog[49].server[0] droppedJobsTotal 9444
scalar FogSequentialForward.fog[50].dispatcher localJobs 14071
scalar FogSequentialForward.fog[50].dispatcher internalJobs 14454
scalar FogSequentialForward.fog[50].dispatcher externalJobs 3659867
scalar FogSequentialForward.fog[50].dispatcher remoteJobs 3659942
scalar FogSequentialForward.fog[50].dispatcher probeQueries 0
scalar FogSequentialForward.fog[50].dispatcher probeAnswers 0
scalar FogSequentialForward.fog[50].dispatcher droppedJobsSLA 308
scalar FogSequentialForward.fog[50].dispatcher jobs_class_1 3674321
scalar FogSequentialForward.fog[50].dispatcher remoteJobs_class_1 3659942
scalar FogSequentialForward.fog[50].dispatcher localJobs_class_1 14071
scalar FogSequentialForward.fog[50].dispatcher droppedJobsSLA_class_1 308
scalar FogSequentialForward.fog[50].server[0] rho 1
scalar FogSequentialForward.fog[50].server[0] congestionRatio 0
scalar FogSequentialForward.fog[50].server[0] totalJobs 14071
scalar FogSequentialForward.fog[50].server[0] droppedJobsQueue 878
scalar FogSequentialForward.fog[50].server[0] droppedJobsTimout 0
scalar FogSequentialForward.fog[50].server[0] droppedJobsSLA 8328
scalar FogSequentialForward.fog[50].server[0] droppedJobsTotal 9206
scalar FogSequentialForward.fog[51].dispatcher localJobs 14140
scalar FogSequentialForward.fog[51].dispatcher internalJobs 14225
scalar FogSequentialForward.fog[51].dispatcher externalJobs 3657296
scalar FogSequentialForward.fog[51].dispatcher remoteJobs 3657097
scalar FogSequentialForward.fog[51].dispatcher probeQueries 0
scalar FogSequentialForward.fog[51].dispatcher probeAnswers 0
scalar FogSequentialForward.fog[51].dispatcher droppedJobsSLA 284
scalar FogSequentialForward.fog[51].dispatcher jobs_class_1 3671521
scalar FogSequentialForward.fog[51].dispatcher remoteJobs_class_1 3657097
scalar FogSequentialForward.fog[51].dispatcher localJobs_class_1 14140
scalar FogSequentialForward.fog[51].dispatcher droppedJobsSLA_class_1 284
scalar FogSequentialForward.fog[51].server[0] rho 0.99999964237213
scalar FogSequentialForward.fog[51].server[0] congestionRatio 0
scalar FogSequentialForward.fog[51].server[0] totalJobs 14140
scalar FogSequentialForward.fog[51].server[0] droppedJobsQueue 884
scalar FogSequentialForward.fog[51].server[0] droppedJobsTimout 0
scalar FogSequentialForward.fog[51].server[0] droppedJobsSLA 8435
scalar FogSequentialForward.fog[51].server[0] droppedJobsTotal 9319
scalar FogSequentialForward.fog[52].dispatcher localJobs 14112
scalar FogSequentialForward.fog[52].dispatcher internalJobs 14380
scalar FogSequentialForward.fog[52].dispatcher externalJobs 3659845
scalar FogSequentialForward.fog[52].dispatcher remoteJobs 3659795
scalar FogSequentialForward.fog[52].dispatcher probeQueries 0
scalar FogSequentialForward.fog[52].dispatcher probeAnswers 0
scalar FogSequentialForward.fog[52].dispatcher droppedJobsSLA 318
scalar FogSequentialForward.fog[52].dispatcher jobs_class_1 3674225
scalar FogSequentialForward.fog[52].dispatcher remoteJobs_class_1 3659795
scalar FogSequentialForward.fog[52].dispatcher localJobs_class_1 14112
scalar FogSequentialForward.fog[52].dispatcher droppedJobsSLA_class_1 318
scalar FogSequentialForward.fog[52].server[0] rho 1
scalar FogSequentialForward.fog[52].server[0] congestionRatio 0
scalar FogSequentialForward.fog[52].server[0] totalJobs 14112
scalar FogSequentialForward.fog[52].server[0] droppedJobsQueue 884
scalar FogSequentialForward.fog[52].server[0] droppedJobsTimout 0
scalar FogSequentialForward.fog[52].server[0] droppedJobsSLA 8415
scalar FogSequentialForward.fog[52].server[0] droppedJobsTotal 9299
scalar FogSequentialForward.fog[53].dispatcher localJobs 14079
scalar FogSequentialForward.fog[53].dispatcher internalJobs 14600
scalar FogSequentialForward.fog[53].dispatcher externalJobs 3656535
scalar FogSequentialForward.fog[53].dispatcher remoteJobs 3656761
scalar FogSequentialForward.fog[53].dispatcher probeQueries 0
scalar FogSequentialForward.fog[53].dispatcher probeAnswers 0
scalar FogSequentialForward.fog[53].dispatcher droppedJobsSLA 295
scalar FogSequentialForward.fog[53].dispatcher jobs_class_1 3671135
scalar FogSequentialForward.fog[53].dispatcher remoteJobs_class_1 3656761
scalar FogSequentialForward.fog[53].dispatcher localJobs_class_1 14079
scalar FogSequentialForward.fog[53].dispatcher droppedJobsSLA_class_1 295
scalar FogSequentialForward.fog[53].server[0] rho 1
scalar FogSequentialForward.fog[53].server[0] congestionRatio 0
scalar FogSequentialForward.fog[53].server[0] totalJobs 14079
scalar FogSequentialForward.fog[53].server[0] droppedJobsQueue 883
scalar FogSequentialForward.fog[53].server[0] droppedJobsTimout 0
scalar FogSequentialForward.fog[53].server[0] droppedJobsSLA 8360
scalar FogSequentialForward.fog[53].server[0] droppedJobsTotal 9243
scalar FogSequentialForward.fog[54].dispatcher localJobs 14032
scalar FogSequentialForward.fog[54].dispatcher internalJobs 14327
scalar FogSequentialForward.fog[54].dispatcher externalJobs 3655665
scalar FogSequentialForward.fog[54].dispatcher remoteJobs 3655642
scalar FogSequentialForward.fog[54].dispatcher probeQueries 0
scalar FogSequentialForward.fog[54].dispatcher probeAnswers 0
scalar FogSequentialForward.fog[54].dispatcher droppedJobsSLA 318
scalar FogSequentialForward.fog[54].dispatcher jobs_class_1 3669992
scalar FogSequentialForward.fog[54].dispatcher remoteJobs_class_1 3655642
scalar FogSequentialForward.fog[54].dispatcher localJobs_class_1 14032
scalar FogSequentialForward.fog[54].dispatcher droppedJobsSLA_class_1 318
scalar FogSequentialForward.fog[54].server[0] rho 1
scalar FogSequentialForward.fog[54].server[0] congestionRatio 0
scalar FogSequentialForward.fog[54].server[0] totalJobs 14032
scalar FogSequentialForward.fog[54].server[0] droppedJobsQueue 881
scalar FogSequentialForward.fog[54].server[0] droppedJobsTimout 0
scalar FogSequentialForward.fog[54].server[0] droppedJobsSLA 8329
scalar FogSequentialForward.fog[54].server[0] droppedJobsTotal 9210
scalar FogSequentialForward.fog[55].dispatcher localJobs 14049
scalar FogSequentialForward.fog[55].dispatcher internalJobs 14387
scalar FogSequentialForward.fog[55].dispatcher externalJobs 3657140
scalar FogSequentialForward.fog[55].dispatcher remoteJobs 3657178
scalar FogSequentialForward.fog[55].dispatcher probeQueries 0
scalar FogSequentialForward.fog[55].dispatcher probeAnswers 0
scalar FogSequentialForward.fog[55].dispatcher droppedJobsSLA 300
scalar FogSequentialForward.fog[55].dispatcher jobs_class_1 3671527
scalar FogSequentialForward.fog[55].dispatcher remoteJobs_class_1 3657178
scalar FogSequentialForward.fog[55].dispatcher localJobs_class_1 14049
scalar FogSequentialForward.fog[55].dispatcher droppedJobsSLA_class_1 300
scalar FogSequentialForward.fog[55].server[0] rho 1
scalar FogSequentialForward.fog[55].server[0] congestionRatio 0
scalar FogSequentialForward.fog[55].server[0] totalJobs 14049
scalar FogSequentialForward.fog[55].server[0] droppedJobsQueue 879
scalar FogSequentialForward.fog[55].server[0] droppedJobsTimout 0
scalar FogSequentialForward.fog[55].server[0] droppedJobsSLA 8360
scalar FogSequentialForward.fog[55].server[0] droppedJobsTotal 9239
scalar FogSequentialForward.fog[56].dispatcher localJobs 14075
scalar FogSequentialForward.fog[56].dispatcher internalJobs 14371
scalar FogSequentialForward.fog[56].dispatcher externalJobs 3655928
scalar FogSequentialForward.fog[56].dispatcher remoteJobs 3655892
scalar FogSequentialForward.fog[56].dispatcher probeQueries 0
scalar FogSequentialForward.fog[56].dispatcher probeAnswers 0
scalar FogSequentialForward.fog[56].dispatcher droppedJobsSLA 332
scalar FogSequentialForward.fog[56].dispatcher jobs_class_1 3670299
scalar FogSequentialForward.fog[56].dispatcher remoteJobs_class_1 3655892
scalar FogSequentialForward.fog[56].dispatcher localJobs_class_1 14075
scalar FogSequentialForward.fog[56].dispatcher droppedJobsSLA_class_1 332
scalar FogSequentialForward.fog[56].server[0] rho 0.99999976158142
scalar FogSequentialForward.fog[56].server[0] congestionRatio 0
scalar FogSequentialForward.fog[56].server[0] totalJobs 14075
scalar FogSequentialForward.fog[56].server[0] droppedJobsQueue 879
scalar FogSequentialForward.fog[56].server[0] droppedJobsTimout 0
scalar FogSequentialForward.fog[56].server[0] droppedJobsSLA 8391
scalar FogSequentialForward.fog[56].server[0] droppedJobsTotal 9270
scalar FogSequentialForward.fog[57].dispatcher localJobs 14090
scalar FogSequentialForward.fog[57].dispatcher internalJobs 14227
scalar FogSequentialForward.fog[57].dispatcher externalJobs 3660915
scalar FogSequentialForward.fog[57].dispatcher remoteJobs 3660750
scalar FogSequentialForward.fog[57].dispatcher probeQueries 0
scalar FogSequentialForward.fog[57].dispatcher probeAnswers 0
scalar FogSequentialForward.fog[57].dispatcher droppedJobsSLA 302
scalar FogSequentialForward.fog[57].dispatcher jobs_class_1 3675142
scalar FogSequentialForward.fog[57].dispatcher remoteJobs_class_1 3660750
scalar FogSequentialForward.fog[57].dispatcher localJobs_class_1 14090
scalar FogSequentialForward.fog[57].dispatcher droppedJobsSLA_class_1 302
scalar FogSequentialForward.fog[57].server[0] rho 0.99999976158142
scalar FogSequentialForward.fog[57].server[0] congestionRatio 0
scalar FogSequentialForward.fog[57].server[0] totalJobs 14090
scalar FogSequentialForward.fog[57].server[0] droppedJobsQueue 881
scalar FogSequentialForward.fog[57].server[0] droppedJobsTimout 0
scalar FogSequentialForward.fog[57].server[0] droppedJobsSLA 8408
scalar FogSequentialForward.fog[57].server[0] droppedJobsTotal 9289
scalar FogSequentialForward.fog[58].dispatcher localJobs 14102
scalar FogSequentialForward.fog[58].dispatcher internalJobs 14457
scalar FogSequentialForward.fog[58].dispatcher externalJobs 3655459
scalar FogSequentialForward.fog[58].dispatcher remoteJobs 3655513
scalar FogSequentialForward.fog[58].dispatcher probeQueries 0
scalar FogSequentialForward.fog[58].dispatcher probeAnswers 0
scalar FogSequentialForward.fog[58].dispatcher droppedJobsSLA 301
scalar FogSequentialForward.fog[58].dispatcher jobs_class_1 3669916
scalar FogSequentialForward.fog[58].dispatcher remoteJobs_class_1 3655513
scalar FogSequentialForward.fog[58].dispatcher localJobs_class_1 14102
scalar FogSequentialForward.fog[58].dispatcher droppedJobsSLA_class_1 301
scalar FogSequentialForward.fog[58].server[0] rho 0.99997115135193
scalar FogSequentialForward.fog[58].server[0] congestionRatio 0
scalar FogSequentialForward.fog[58].server[0] totalJobs 14102
scalar FogSequentialForward.fog[58].server[0] droppedJobsQueue 887
scalar FogSequentialForward.fog[58].server[0] droppedJobsTimout 0
scalar FogSequentialForward.fog[58].server[0] droppedJobsSLA 8368
scalar FogSequentialForward.fog[58].server[0] droppedJobsTotal 9255
scalar FogSequentialForward.fog[59].dispatcher localJobs 14185
scalar FogSequentialForward.fog[59].dispatcher internalJobs 14464
scalar FogSequentialForward.fog[59].dispatcher externalJobs 3657470
scalar FogSequentialForward.fog[59].dispatcher remoteJobs 3657461
scalar FogSequentialForward.fog[59].dispatcher probeQueries 0
scalar FogSequentialForward.fog[59].dispatcher probeAnswers 0
scalar FogSequentialForward.fog[59].dispatcher droppedJobsSLA 288
scalar FogSequentialForward.fog[59].dispatcher jobs_class_1 3671934
scalar FogSequentialForward.fog[59].dispatcher remoteJobs_class_1 3657461
scalar FogSequentialForward.fog[59].dispatcher localJobs_class_1 14185
scalar FogSequentialForward.fog[59].dispatcher droppedJobsSLA_class_1 288
scalar FogSequentialForward.fog[59].server[0] rho 1
scalar FogSequentialForward.fog[59].server[0] congestionRatio 0
scalar FogSequentialForward.fog[59].server[0] totalJobs 14185
scalar FogSequentialForward.fog[59].server[0] droppedJobsQueue 888
scalar FogSequentialForward.fog[59].server[0] droppedJobsTimout 0
scalar FogSequentialForward.fog[59].server[0] droppedJobsSLA 8473
scalar FogSequentialForward.fog[59].server[0] droppedJobsTotal 9361
scalar FogSequentialForward.fog[60].dispatcher localJobs 14129
scalar FogSequentialForward.fog[60].dispatcher internalJobs 14298
scalar FogSequentialForward.fog[60].dispatcher externalJobs 3653103
scalar FogSequentialForward.fog[60].dispatcher remoteJobs 3652962
scalar FogSequentialForward.fog[60].dispatcher probeQueries 0
scalar FogSequentialForward.fog[60].dispatcher probeAnswers 0
scalar FogSequentialForward.fog[60].dispatcher droppedJobsSLA 310
scalar FogSequentialForward.fog[60].dispatcher jobs_class_1 3667401
scalar FogSequentialForward.fog[60].dispatcher remoteJobs_class_1 3652962
scalar FogSequentialForward.fog[60].dispatcher localJobs_class_1 14129
scalar FogSequentialForward.fog[60].dispatcher droppedJobsSLA_class_1 310
scalar FogSequentialForward.fog[60].server[0] rho 1
scalar FogSequentialForward.fog[60].server[0] congestionRatio 0
scalar FogSequentialForward.fog[60].server[0] totalJobs 14129
scalar FogSequentialForward.fog[60].server[0] droppedJobsQueue 886
scalar FogSequentialForward.fog[60].server[0] droppedJobsTimout 0
scalar FogSequentialForward.fog[60].server[0] droppedJobsSLA 8430
scalar FogSequentialForward.fog[60].server[0] droppedJobsTotal 9316
scalar FogSequentialForward.fog[61].dispatcher localJobs 14140
scalar FogSequentialForward.fog[61].dispatcher internalJobs 14362
scalar FogSequentialForward.fog[61].dispatcher externalJobs 3655797
scalar FogSequentialForward.fog[61].dispatcher remoteJobs 3655713
scalar FogSequentialForward.fog[61].dispatcher probeQueries 0
scalar FogSequentialForward.fog[61].dispatcher probeAnswers 0
scalar FogSequentialForward.fog[61].dispatcher droppedJobsSLA 306
scalar FogSequentialForward.fog[61].dispatcher jobs_class_1 3670159
scalar FogSequentialForward.fog[61].dispatcher remoteJobs_class_1 3655713
scalar FogSequentialForward.fog[61].dispatcher localJobs_class_1 14140
scalar FogSequentialForward.fog[61].dispatcher droppedJobsSLA_class_1 306
scalar FogSequentialForward.fog[61].server[0] rho 0.99999958276749
scalar FogSequentialForward.fog[61].server[0] congestionRatio 0
scalar FogSequentialForward.fog[61].server[0] totalJobs 14140
scalar FogSequentialForward.fog[61].server[0] droppedJobsQueue 881
scalar FogSequentialForward.fog[61].server[0] droppedJobsTimout 0
scalar FogSequentialForward.fog[61].server[0] droppedJobsSLA 8384
scalar FogSequentialForward.fog[61].server[0] droppedJobsTotal 9265
scalar FogSequentialForward.fog[62].dispatcher localJobs 14166
scalar FogSequentialForward.fog[62].dispatcher internalJobs 14449
scalar FogSequentialForward.fog[62].dispatcher externalJobs 3653025
scalar FogSequentialForward.fog[62].dispatcher remoteJobs 3652993
scalar FogSequentialForward.fog[62].dispatcher probeQueries 0
scalar FogSequentialForward.fog[62].dispatcher probeAnswers 0
scalar FogSequentialForward.fog[62].dispatcher droppedJobsSLA 315
scalar FogSequentialForward.fog[62].dispatcher jobs_class_1 3667474
scalar FogSequentialForward.fog[62].dispatcher remoteJobs_class_1 3652993
scalar FogSequentialForward.fog[62].dispatcher localJobs_class_1 14166
scalar FogSequentialForward.fog[62].dispatcher droppedJobsSLA_class_1 315
scalar FogSequentialForward.fog[62].server[0] rho 0.99999988079071
scalar FogSequentialForward.fog[62].server[0] congestionRatio 0
scalar FogSequentialForward.fog[62].server[0] totalJobs 14166
scalar FogSequentialForward.fog[62].server[0] droppedJobsQueue 889
scalar FogSequentialForward.fog[62].server[0] droppedJobsTimout 0
scalar FogSequentialForward.fog[62].server[0] droppedJobsSLA 8465
scalar FogSequentialForward.fog[62].server[0] droppedJobsTotal 9354
scalar FogSequentialForward.fog[63].dispatcher localJobs 14085
scalar FogSequentialForward.fog[63].dispatcher internalJobs 14285
scalar FogSequentialForward.fog[63].dispatcher externalJobs 3658992
scalar FogSequentialForward.fog[63].dispatcher remoteJobs 3658842
scalar FogSequentialForward.fog[63].dispatcher probeQueries 0
scalar FogSequentialForward.fog[63].dispatcher probeAnswers 0
scalar FogSequentialForward.fog[63].dispatcher droppedJobsSLA 350
scalar FogSequentialForward.fog[63].dispatcher jobs_class_1 3673277
scalar FogSequentialForward.fog[63].dispatcher remoteJobs_class_1 3658842
scalar FogSequentialForward.fog[63].dispatcher localJobs_class_1 14085
scalar FogSequentialForward.fog[63].dispatcher droppedJobsSLA_class_1 350
scalar FogSequentialForward.fog[63].server[0] rho 1
scalar FogSequentialForward.fog[63].server[0] congestionRatio 0
scalar FogSequentialForward.fog[63].server[0] totalJobs 14085
scalar FogSequentialForward.fog[63].server[0] droppedJobsQueue 884
scalar FogSequentialForward.fog[63].server[0] droppedJobsTimout 0
scalar FogSequentialForward.fog[63].server[0] droppedJobsSLA 8382
scalar FogSequentialForward.fog[63].server[0] droppedJobsTotal 9266
scalar FogSequentialForward.fog[64].dispatcher localJobs 14152
scalar FogSequentialForward.fog[64].dispatcher internalJobs 14423
scalar FogSequentialForward.fog[64].dispatcher externalJobs 3658743
scalar FogSequentialForward.fog[64].dispatcher remoteJobs 3658687
scalar FogSequentialForward.fog[64].dispatcher probeQueries 0
scalar FogSequentialForward.fog[64].dispatcher probeAnswers 0
scalar FogSequentialForward.fog[64].dispatcher droppedJobsSLA 327
scalar FogSequentialForward.fog[64].dispatcher jobs_class_1 3673166
scalar FogSequentialForward.fog[64].dispatcher remoteJobs_class_1 3658687
scalar FogSequentialForward.fog[64].dispatcher localJobs_class_1 14152
scalar FogSequentialForward.fog[64].dispatcher droppedJobsSLA_class_1 327
scalar FogSequentialForward.fog[64].server[0] rho 0.99999970197678
scalar FogSequentialForward.fog[64].server[0] congestionRatio 0
scalar FogSequentialForward.fog[64].server[0] totalJobs 14152
scalar FogSequentialForward.fog[64].server[0] droppedJobsQueue 888
scalar FogSequentialForward.fog[64].server[0] droppedJobsTimout 0
scalar FogSequentialForward.fog[64].server[0] droppedJobsSLA 8475
scalar FogSequentialForward.fog[64].server[0] droppedJobsTotal 9363
scalar FogSequentialForward.fog[65].dispatcher localJobs 14021
scalar FogSequentialForward.fog[65].dispatcher internalJobs 14385
scalar FogSequentialForward.fog[65].dispatcher externalJobs 3658983
scalar FogSequentialForward.fog[65].dispatcher remoteJobs 3659062
scalar FogSequentialForward.fog[65].dispatcher probeQueries 0
scalar FogSequentialForward.fog[65].dispatcher probeAnswers 0
scalar FogSequentialForward.fog[65].dispatcher droppedJobsSLA 285
scalar FogSequentialForward.fog[65].dispatcher jobs_class_1 3673368
scalar FogSequentialForward.fog[65].dispatcher remoteJobs_class_1 3659062
scalar FogSequentialForward.fog[65].dispatcher localJobs_class_1 14021
scalar FogSequentialForward.fog[65].dispatcher droppedJobsSLA_class_1 285
scalar FogSequentialForward.fog[65].server[0] rho 0.99999982118607
scalar FogSequentialForward.fog[65].server[0] congestionRatio 0
scalar FogSequentialForward.fog[65].server[0] totalJobs 14021
scalar FogSequentialForward.fog[65].server[0] droppedJobsQueue 872
scalar FogSequentialForward.fog[65].server[0] droppedJobsTimout 0
scalar FogSequentialForward.fog[65].server[0] droppedJobsSLA 8273
scalar FogSequentialForward.fog[65].server[0] droppedJobsTotal 9145
scalar FogSequentialForward.fog[66].dispatcher localJobs 14147
scalar FogSequentialForward.fog[66].dispatcher internalJobs 14274
scalar FogSequentialForward.fog[66].dispatcher externalJobs 3657881
[...]
scalar FogSequentialForward.fog[84].dispatcher remoteJobs 3658391
scalar FogSequentialForward.fog[84].dispatcher probeQueries 0
scalar FogSequentialForward.fog[84].dispatcher probeAnswers 0
scalar FogSequentialForward.fog[84].dispatcher droppedJobsSLA 317
scalar FogSequentialForward.fog[84].dispatcher jobs_class_1 3672756
scalar FogSequentialForward.fog[84].dispatcher remoteJobs_class_1 3658391
scalar FogSequentialForward.fog[84].dispatcher localJobs_class_1 14048
scalar FogSequentialForward.fog[84].dispatcher droppedJobsSLA_class_1 317
scalar FogSequentialForward.fog[84].server[0] rho 1
scalar FogSequentialForward.fog[84].server[0] congestionRatio 0
scalar FogSequentialForward.fog[84].server[0] totalJobs 14048
scalar FogSequentialForward.fog[84].server[0] droppedJobsQueue 883
scalar FogSequentialForward.fog[84].server[0] droppedJobsTimout 0
scalar FogSequentialForward.fog[84].server[0] droppedJobsSLA 8375
scalar FogSequentialForward.fog[84].server[0] droppedJobsTotal 9258
scalar FogSequentialForward.fog[85].dispatcher localJobs 14119
scalar FogSequentialForward.fog[85].dispatcher internalJobs 14359
scalar FogSequentialForward.fog[85].dispatcher externalJobs 3657848
scalar FogSequentialForward.fog[85].dispatcher remoteJobs 3657768
scalar FogSequentialForward.fog[85].dispatcher probeQueries 0
scalar FogSequentialForward.fog[85].dispatcher probeAnswers 0
scalar FogSequentialForward.fog[85].dispatcher droppedJobsSLA 320
scalar FogSequentialForward.fog[85].dispatcher jobs_class_1 3672207
scalar FogSequentialForward.fog[85].dispatcher remoteJobs_class_1 3657768
scalar FogSequentialForward.fog[85].dispatcher localJobs_class_1 14119
scalar FogSequentialForward.fog[85].dispatcher droppedJobsSLA_class_1 320
scalar FogSequentialForward.fog[85].server[0] rho 1
scalar FogSequentialForward.fog[85].server[0] congestionRatio 0
scalar FogSequentialForward.fog[85].server[0] totalJobs 14119
scalar FogSequentialForward.fog[85].server[0] droppedJobsQueue 886
scalar FogSequentialForward.fog[85].server[0] droppedJobsTimout 0
scalar FogSequentialForward.fog[85].server[0] droppedJobsSLA 8432
scalar FogSequentialForward.fog[85].server[0] droppedJobsTotal 9318
scalar FogSequentialForward.fog[86].dispatcher localJobs 14069
scalar FogSequentialForward.fog[86].dispatcher internalJobs 14399
scalar FogSequentialForward.fog[86].dispatcher externalJobs 3654296
scalar FogSequentialForward.fog[86].dispatcher remoteJobs 3654336
scalar FogSequentialForward.fog[86].dispatcher probeQueries 0
scalar FogSequentialForward.fog[86].dispatcher probeAnswers 0
scalar FogSequentialForward.fog[86].dispatcher droppedJobsSLA 290
scalar FogSequentialForward.fog[86].dispatcher jobs_class_1 3668695
scalar FogSequentialForward.fog[86].dispatcher remoteJobs_class_1 3654336
scalar FogSequentialForward.fog[86].dispatcher localJobs_class_1 14069
scalar FogSequentialForward.fog[86].dispatcher droppedJobsSLA_class_1 290
scalar FogSequentialForward.fog[86].server[0] rho 1
scalar FogSequentialForward.fog[86].server[0] congestionRatio 0
scalar FogSequentialForward.fog[86].server[0] totalJobs 14069
scalar FogSequentialForward.fog[86].server[0] droppedJobsQueue 882
scalar FogSequentialForward.fog[86].server[0] droppedJobsTimout 0
scalar FogSequentialForward.fog[86].server[0] droppedJobsSLA 8322
scalar FogSequentialForward.fog[86].server[0] droppedJobsTotal 9204
scalar FogSequentialForward.fog[87].dispatcher localJobs 14076
scalar FogSequentialForward.fog[87].dispatcher internalJobs 14492
scalar FogSequentialForward.fog[87].dispatcher externalJobs 3658519
scalar FogSequentialForward.fog[87].dispatcher remoteJobs 3658647
scalar FogSequentialForward.fog[87].dispatcher probeQueries 0
scalar FogSequentialForward.fog[87].dispatcher probeAnswers 0
scalar FogSequentialForward.fog[87].dispatcher droppedJobsSLA 288
scalar FogSequentialForward.fog[87].dispatcher jobs_class_1 3673011
scalar FogSequentialForward.fog[87].dispatcher remoteJobs_class_1 3658647
scalar FogSequentialForward.fog[87].dispatcher localJobs_class_1 14076
scalar FogSequentialForward.fog[87].dispatcher droppedJobsSLA_class_1 288
scalar FogSequentialForward.fog[87].server[0] rho 0.99999982118607
scalar FogSequentialForward.fog[87].server[0] congestionRatio 0
scalar FogSequentialForward.fog[87].server[0] totalJobs 14076
scalar FogSequentialForward.fog[87].server[0] droppedJobsQueue 882
scalar FogSequentialForward.fog[87].server[0] droppedJobsTimout 0
scalar FogSequentialForward.fog[87].server[0] droppedJobsSLA 8352
scalar FogSequentialForward.fog[87].server[0] droppedJobsTotal 9234
scalar FogSequentialForward.fog[88].dispatcher localJobs 14127
scalar FogSequentialForward.fog[88].dispatcher internalJobs 14600
scalar FogSequentialForward.fog[88].dispatcher externalJobs 3659025
scalar FogSequentialForward.fog[88].dispatcher remoteJobs 3659199
scalar FogSequentialForward.fog[88].dispatcher probeQueries 0
scalar FogSequentialForward.fog[88].dispatcher probeAnswers 0
scalar FogSequentialForward.fog[88].dispatcher droppedJobsSLA 299
scalar FogSequentialForward.fog[88].dispatcher jobs_class_1 3673625
scalar FogSequentialForward.fog[88].dispatcher remoteJobs_class_1 3659199
scalar FogSequentialForward.fog[88].dispatcher localJobs_class_1 14127
scalar FogSequentialForward.fog[88].dispatcher droppedJobsSLA_class_1 299
scalar FogSequentialForward.fog[88].server[0] rho 0.99991941452026
scalar FogSequentialForward.fog[88].server[0] congestionRatio 0
scalar FogSequentialForward.fog[88].server[0] totalJobs 14127
scalar FogSequentialForward.fog[88].server[0] droppedJobsQueue 885
scalar FogSequentialForward.fog[88].server[0] droppedJobsTimout 0
scalar FogSequentialForward.fog[88].server[0] droppedJobsSLA 8443
scalar FogSequentialForward.fog[88].server[0] droppedJobsTotal 9328
scalar FogSequentialForward.fog[89].dispatcher localJobs 14109
scalar FogSequentialForward.fog[89].dispatcher internalJobs 14474
scalar FogSequentialForward.fog[89].dispatcher externalJobs 3658736
scalar FogSequentialForward.fog[89].dispatcher remoteJobs 3658799
scalar FogSequentialForward.fog[89].dispatcher probeQueries 0
scalar FogSequentialForward.fog[89].dispatcher probeAnswers 0
scalar FogSequentialForward.fog[89].dispatcher droppedJobsSLA 302
scalar FogSequentialForward.fog[89].dispatcher jobs_class_1 3673210
scalar FogSequentialForward.fog[89].dispatcher remoteJobs_class_1 3658799
scalar FogSequentialForward.fog[89].dispatcher localJobs_class_1 14109
scalar FogSequentialForward.fog[89].dispatcher droppedJobsSLA_class_1 302
scalar FogSequentialForward.fog[89].server[0] rho 0.99983143806458
scalar FogSequentialForward.fog[89].server[0] congestionRatio 0
scalar FogSequentialForward.fog[89].server[0] totalJobs 14109
scalar FogSequentialForward.fog[89].server[0] droppedJobsQueue 884
scalar FogSequentialForward.fog[89].server[0] droppedJobsTimout 0
scalar FogSequentialForward.fog[89].server[0] droppedJobsSLA 8377
scalar FogSequentialForward.fog[89].server[0] droppedJobsTotal 9261
scalar FogSequentialForward.fog[90].dispatcher localJobs 14110
scalar FogSequentialForward.fog[90].dispatcher internalJobs 14266
scalar FogSequentialForward.fog[90].dispatcher externalJobs 3656053
scalar FogSequentialForward.fog[90].dispatcher remoteJobs 3655890
scalar FogSequentialForward.fog[90].dispatcher probeQueries 0
scalar FogSequentialForward.fog[90].dispatcher probeAnswers 0
scalar FogSequentialForward.fog[90].dispatcher droppedJobsSLA 319
scalar FogSequentialForward.fog[90].dispatcher jobs_class_1 3670319
scalar FogSequentialForward.fog[90].dispatcher remoteJobs_class_1 3655890
scalar FogSequentialForward.fog[90].dispatcher localJobs_class_1 14110
scalar FogSequentialForward.fog[90].dispatcher droppedJobsSLA_class_1 319
scalar FogSequentialForward.fog[90].server[0] rho 0.99999970197678
scalar FogSequentialForward.fog[90].server[0] congestionRatio 0
scalar FogSequentialForward.fog[90].server[0] totalJobs 14110
scalar FogSequentialForward.fog[90].server[0] droppedJobsQueue 884
scalar FogSequentialForward.fog[90].server[0] droppedJobsTimout 0
scalar FogSequentialForward.fog[90].server[0] droppedJobsSLA 8422
scalar FogSequentialForward.fog[90].server[0] droppedJobsTotal 9306
scalar FogSequentialForward.fog[91].dispatcher localJobs 14084
scalar FogSequentialForward.fog[91].dispatcher internalJobs 14443
scalar FogSequentialForward.fog[91].dispatcher externalJobs 3657121
scalar FogSequentialForward.fog[91].dispatcher remoteJobs 3657183
scalar FogSequentialForward.fog[91].dispatcher probeQueries 0
scalar FogSequentialForward.fog[91].dispatcher probeAnswers 0
scalar FogSequentialForward.fog[91].dispatcher droppedJobsSLA 297
scalar FogSequentialForward.fog[91].dispatcher jobs_class_1 3671564
scalar FogSequentialForward.fog[91].dispatcher remoteJobs_class_1 3657183
scalar FogSequentialForward.fog[91].dispatcher localJobs_class_1 14084
scalar FogSequentialForward.fog[91].dispatcher droppedJobsSLA_class_1 297
scalar FogSequentialForward.fog[91].server[0] rho 0.99999964237213
scalar FogSequentialForward.fog[91].server[0] congestionRatio 0
scalar FogSequentialForward.fog[91].server[0] totalJobs 14084
scalar FogSequentialForward.fog[91].server[0] droppedJobsQueue 882
scalar FogSequentialForward.fog[91].server[0] droppedJobsTimout 0
scalar FogSequentialForward.fog[91].server[0] droppedJobsSLA 8359
scalar FogSequentialForward.fog[91].server[0] droppedJobsTotal 9241
scalar FogSequentialForward.fog[92].dispatcher localJobs 14101
scalar FogSequentialForward.fog[92].dispatcher internalJobs 14512
scalar FogSequentialForward.fog[92].dispatcher externalJobs 3655487
scalar FogSequentialForward.fog[92].dispatcher remoteJobs 3655547
scalar FogSequentialForward.fog[92].dispatcher probeQueries 0
scalar FogSequentialForward.fog[92].dispatcher probeAnswers 0
scalar FogSequentialForward.fog[92].dispatcher droppedJobsSLA 351
scalar FogSequentialForward.fog[92].dispatcher jobs_class_1 3669999
scalar FogSequentialForward.fog[92].dispatcher remoteJobs_class_1 3655547
scalar FogSequentialForward.fog[92].dispatcher localJobs_class_1 14101
scalar FogSequentialForward.fog[92].dispatcher droppedJobsSLA_class_1 351
scalar FogSequentialForward.fog[92].server[0] rho 1
scalar FogSequentialForward.fog[92].server[0] congestionRatio 0
scalar FogSequentialForward.fog[92].server[0] totalJobs 14101
scalar FogSequentialForward.fog[92].server[0] droppedJobsQueue 886
scalar FogSequentialForward.fog[92].server[0] droppedJobsTimout 0
scalar FogSequentialForward.fog[92].server[0] droppedJobsSLA 8404
scalar FogSequentialForward.fog[92].server[0] droppedJobsTotal 9290
scalar FogSequentialForward.fog[93].dispatcher localJobs 14092
scalar FogSequentialForward.fog[93].dispatcher internalJobs 14327
scalar FogSequentialForward.fog[93].dispatcher externalJobs 3656870
scalar FogSequentialForward.fog[93].dispatcher remoteJobs 3656784
scalar FogSequentialForward.fog[93].dispatcher probeQueries 0
scalar FogSequentialForward.fog[93].dispatcher probeAnswers 0
scalar FogSequentialForward.fog[93].dispatcher droppedJobsSLA 321
scalar FogSequentialForward.fog[93].dispatcher jobs_class_1 3671197
scalar FogSequentialForward.fog[93].dispatcher remoteJobs_class_1 3656784
scalar FogSequentialForward.fog[93].dispatcher localJobs_class_1 14092
scalar FogSequentialForward.fog[93].dispatcher droppedJobsSLA_class_1 321
scalar FogSequentialForward.fog[93].server[0] rho 0.99999904632568
scalar FogSequentialForward.fog[93].server[0] congestionRatio 0
scalar FogSequentialForward.fog[93].server[0] totalJobs 14092
scalar FogSequentialForward.fog[93].server[0] droppedJobsQueue 885
scalar FogSequentialForward.fog[93].server[0] droppedJobsTimout 0
scalar FogSequentialForward.fog[93].server[0] droppedJobsSLA 8359
scalar FogSequentialForward.fog[93].server[0] droppedJobsTotal 9244
scalar FogSequentialForward.fog[94].dispatcher localJobs 14105
scalar FogSequentialForward.fog[94].dispatcher internalJobs 14224
scalar FogSequentialForward.fog[94].dispatcher externalJobs 3657141
scalar FogSequentialForward.fog[94].dispatcher remoteJobs 3656914
scalar FogSequentialForward.fog[94].dispatcher probeQueries 0
scalar FogSequentialForward.fog[94].dispatcher probeAnswers 0
scalar FogSequentialForward.fog[94].dispatcher droppedJobsSLA 346
scalar FogSequentialForward.fog[94].dispatcher jobs_class_1 3671365
scalar FogSequentialForward.fog[94].dispatcher remoteJobs_class_1 3656914
scalar FogSequentialForward.fog[94].dispatcher localJobs_class_1 14105
scalar FogSequentialForward.fog[94].dispatcher droppedJobsSLA_class_1 346
scalar FogSequentialForward.fog[94].server[0] rho 1
scalar FogSequentialForward.fog[94].server[0] congestionRatio 0
scalar FogSequentialForward.fog[94].server[0] totalJobs 14105
scalar FogSequentialForward.fog[94].server[0] droppedJobsQueue 886
scalar FogSequentialForward.fog[94].server[0] droppedJobsTimout 0
scalar FogSequentialForward.fog[94].server[0] droppedJobsSLA 8425
scalar FogSequentialForward.fog[94].server[0] droppedJobsTotal 9311
scalar FogSequentialForward.fog[95].dispatcher localJobs 14090
scalar FogSequentialForward.fog[95].dispatcher internalJobs 14605
scalar FogSequentialForward.fog[95].dispatcher externalJobs 3654195
scalar FogSequentialForward.fog[95].dispatcher remoteJobs 3654421
scalar FogSequentialForward.fog[95].dispatcher probeQueries 0
scalar FogSequentialForward.fog[95].dispatcher probeAnswers 0
scalar FogSequentialForward.fog[95].dispatcher droppedJobsSLA 289
scalar FogSequentialForward.fog[95].dispatcher jobs_class_1 3668800
scalar FogSequentialForward.fog[95].dispatcher remoteJobs_class_1 3654421
scalar FogSequentialForward.fog[95].dispatcher localJobs_class_1 14090
scalar FogSequentialForward.fog[95].dispatcher droppedJobsSLA_class_1 289
scalar FogSequentialForward.fog[95].server[0] rho 0.99999958276749
scalar FogSequentialForward.fog[95].server[0] congestionRatio 0
scalar FogSequentialForward.fog[95].server[0] totalJobs 14090
scalar FogSequentialForward.fog[95].server[0] droppedJobsQueue 885
scalar FogSequentialForward.fog[95].server[0] droppedJobsTimout 0
scalar FogSequentialForward.fog[95].server[0] droppedJobsSLA 8351
scalar FogSequentialForward.fog[95].server[0] droppedJobsTotal 9236
scalar FogSequentialForward.fog[96].dispatcher localJobs 14126
scalar FogSequentialForward.fog[96].dispatcher internalJobs 14372
scalar FogSequentialForward.fog[96].dispatcher externalJobs 3655406
scalar FogSequentialForward.fog[96].dispatcher remoteJobs 3655337
scalar FogSequentialForward.fog[96].dispatcher probeQueries 0
scalar FogSequentialForward.fog[96].dispatcher probeAnswers 0
scalar FogSequentialForward.fog[96].dispatcher droppedJobsSLA 315
scalar FogSequentialForward.fog[96].dispatcher jobs_class_1 3669778
scalar FogSequentialForward.fog[96].dispatcher remoteJobs_class_1 3655337
scalar FogSequentialForward.fog[96].dispatcher localJobs_class_1 14126
scalar FogSequentialForward.fog[96].dispatcher droppedJobsSLA_class_1 315
scalar FogSequentialForward.fog[96].server[0] rho 1
scalar FogSequentialForward.fog[96].server[0] congestionRatio 0
scalar FogSequentialForward.fog[96].server[0] totalJobs 14126
scalar FogSequentialForward.fog[96].server[0] droppedJobsQueue 884
scalar FogSequentialForward.fog[96].server[0] droppedJobsTimout 0
scalar FogSequentialForward.fog[96].server[0] droppedJobsSLA 8353
scalar FogSequentialForward.fog[96].server[0] droppedJobsTotal 9237
scalar FogSequentialForward.fog[97].dispatcher localJobs 14125
scalar FogSequentialForward.fog[97].dispatcher internalJobs 14533
scalar FogSequentialForward.fog[97].dispatcher externalJobs 3653710
scalar FogSequentialForward.fog[97].dispatcher remoteJobs 3653833
scalar FogSequentialForward.fog[97].dispatcher probeQueries 0
scalar FogSequentialForward.fog[97].dispatcher probeAnswers 0
scalar FogSequentialForward.fog[97].dispatcher droppedJobsSLA 285
scalar FogSequentialForward.fog[97].dispatcher jobs_class_1 3668243
scalar FogSequentialForward.fog[97].dispatcher remoteJobs_class_1 3653833
scalar FogSequentialForward.fog[97].dispatcher localJobs_class_1 14125
scalar FogSequentialForward.fog[97].dispatcher droppedJobsSLA_class_1 285
scalar FogSequentialForward.fog[97].server[0] rho 0.99991023540497
scalar FogSequentialForward.fog[97].server[0] congestionRatio 0
scalar FogSequentialForward.fog[97].server[0] totalJobs 14125
scalar FogSequentialForward.fog[97].server[0] droppedJobsQueue 885
scalar FogSequentialForward.fog[97].server[0] droppedJobsTimout 0
scalar FogSequentialForward.fog[97].server[0] droppedJobsSLA 8426
scalar FogSequentialForward.fog[97].server[0] droppedJobsTotal 9311
scalar FogSequentialForward.fog[98].dispatcher localJobs 14115
scalar FogSequentialForward.fog[98].dispatcher internalJobs 14534
scalar FogSequentialForward.fog[98].dispatcher externalJobs 3656914
scalar FogSequentialForward.fog[98].dispatcher remoteJobs 3657029
scalar FogSequentialForward.fog[98].dispatcher probeQueries 0
scalar FogSequentialForward.fog[98].dispatcher probeAnswers 0
scalar FogSequentialForward.fog[98].dispatcher droppedJobsSLA 304
scalar FogSequentialForward.fog[98].dispatcher jobs_class_1 3671448
scalar FogSequentialForward.fog[98].dispatcher remoteJobs_class_1 3657029
scalar FogSequentialForward.fog[98].dispatcher localJobs_class_1 14115
scalar FogSequentialForward.fog[98].dispatcher droppedJobsSLA_class_1 304
scalar FogSequentialForward.fog[98].server[0] rho 1
scalar FogSequentialForward.fog[98].server[0] congestionRatio 0
scalar FogSequentialForward.fog[98].server[0] totalJobs 14115
scalar FogSequentialForward.fog[98].server[0] droppedJobsQueue 883
scalar FogSequentialForward.fog[98].server[0] droppedJobsTimout 0
scalar FogSequentialForward.fog[98].server[0] droppedJobsSLA 8466
scalar FogSequentialForward.fog[98].server[0] droppedJobsTotal 9349
scalar FogSequentialForward.fog[99].dispatcher localJobs 14089
scalar FogSequentialForward.fog[99].dispatcher internalJobs 14447
scalar FogSequentialForward.fog[99].dispatcher externalJobs 3659287
scalar FogSequentialForward.fog[99].dispatcher remoteJobs 3659293
scalar FogSequentialForward.fog[99].dispatcher probeQueries 0
scalar FogSequentialForward.fog[99].dispatcher probeAnswers 0
scalar FogSequentialForward.fog[99].dispatcher droppedJobsSLA 352
scalar FogSequentialForward.fog[99].dispatcher jobs_class_1 3673734
scalar FogSequentialForward.fog[99].dispatcher remoteJobs_class_1 3659293
scalar FogSequentialForward.fog[99].dispatcher localJobs_class_1 14089
scalar FogSequentialForward.fog[99].dispatcher droppedJobsSLA_class_1 352
scalar FogSequentialForward.fog[99].server[0] rho 0.99999970197678
scalar FogSequentialForward.fog[99].server[0] congestionRatio 0
scalar FogSequentialForward.fog[99].server[0] totalJobs 14089
scalar FogSequentialForward.fog[99].server[0] droppedJobsQueue 881
scalar FogSequentialForward.fog[99].server[0] droppedJobsTimout 0
scalar FogSequentialForward.fog[99].server[0] droppedJobsSLA 8409
scalar FogSequentialForward.fog[99].server[0] droppedJobsTotal 9290
scalar FogSequentialForward.sink avg_responseTime_1 12.53750567526
scalar FogSequentialForward.sink p90_responseTime_1 1.580256354744
scalar FogSequentialForward.sink med_responseTime_1 1.580256354744
scalar FogSequentialForward.sink avg_delayTime_1 0
scalar FogSequentialForward.sink p90_delayTime_1 0
scalar FogSequentialForward.sink med_delayTime_1 0
scalar FogSequentialForward.sink avg_queuingTime_1 8.5541381251142
scalar FogSequentialForward.sink p90_queuingTime_1 0
scalar FogSequentialForward.sink med_queuingTime_1 0
scalar FogSequentialForward.sink avg_serviceTime_1 1.6720730420312
scalar FogSequentialForward.sink p90_serviceTime_1 1.520985616035
scalar FogSequentialForward.sink med_serviceTime_1 1.520985616035
scalar FogSequentialForward.sink avg_balancerTime_1 2.3112945081141
scalar FogSequentialForward.sink p90_balancerTime_1 0
scalar FogSequentialForward.sink med_balancerTime_1 0
scalar FogSequentialForward.sink avg_balancerCount_1 139.40086874936
scalar FogSequentialForward.sink p90_balancerCount_1 1
scalar FogSequentialForward.sink med_balancerCount_1 1

