version 2
run Fog-mul_10-rho_05-thr_18-2-20190714-02:26:02-91254
attr configname Fog-mul_10-rho_05-thr_18
attr datetime 20190714-02:26:02
attr experiment Fog-mul_10-rho_05-thr_18
attr inifile FogSequentialForward.ini
attr iterationvars ""
attr iterationvarsf ""
attr measurement ""
attr network FogSequentialForward
attr processid 91254
attr repetition 2
attr replication #2
attr resultdir results
attr runnumber 2
attr seedset 2
param FogSequentialForward.proctimeMul 1.0
param FogSequentialForward.rho 0.5
param FogSequentialForward.fog[*].dispatcher.thr 18
param FogSequentialForward.nSources 100
param FogSequentialForward.rho 0.9
param FogSequentialForward.proctimeMul 1.0
param FogSequentialForward.source[*].appId 1
param FogSequentialForward.source[*].realTime true
param FogSequentialForward.source[*].multiHop true
param FogSequentialForward.fog[*].nServers 1
param FogSequentialForward.fog[*].dispatcher.fanOut 1
param FogSequentialForward.fog[*].server[*].timeSlice -1s
param FogSequentialForward.fog[*].server[*].timeout -1s
param FogSequentialForward.fog[*].server[*].capacity 20
param FogSequentialForward.fog[*].server[*].fifo true
param FogSequentialForward.fog[*].server[*].maxServiceTime -1s
param FogSequentialForward.fog[*].dispatcher.thr 1

scalar FogSequentialForward.fog[0].dispatcher localJobs 8970
scalar FogSequentialForward.fog[0].dispatcher internalJobs 8856
scalar FogSequentialForward.fog[0].dispatcher externalJobs 966
scalar FogSequentialForward.fog[0].dispatcher remoteJobs 852
scalar FogSequentialForward.fog[0].dispatcher probeQueries 0
scalar FogSequentialForward.fog[0].dispatcher probeAnswers 0
scalar FogSequentialForward.fog[0].dispatcher droppedJobsSLA 0
scalar FogSequentialForward.fog[0].dispatcher jobs_class_1 9822
scalar FogSequentialForward.fog[0].dispatcher remoteJobs_class_1 852
scalar FogSequentialForward.fog[0].dispatcher localJobs_class_1 8970
scalar FogSequentialForward.fog[0].server[0] rho 1
scalar FogSequentialForward.fog[0].server[0] congestionRatio 0
scalar FogSequentialForward.fog[0].server[0] totalJobs 8970
scalar FogSequentialForward.fog[0].server[0] droppedJobsQueue 3
scalar FogSequentialForward.fog[0].server[0] droppedJobsTimout 0
scalar FogSequentialForward.fog[0].server[0] droppedJobsSLA 5600
scalar FogSequentialForward.fog[0].server[0] droppedJobsTotal 5603
scalar FogSequentialForward.fog[1].dispatcher localJobs 8980
scalar FogSequentialForward.fog[1].dispatcher internalJobs 8967
scalar FogSequentialForward.fog[1].dispatcher externalJobs 964
scalar FogSequentialForward.fog[1].dispatcher remoteJobs 951
scalar FogSequentialForward.fog[1].dispatcher probeQueries 0
scalar FogSequentialForward.fog[1].dispatcher probeAnswers 0
scalar FogSequentialForward.fog[1].dispatcher droppedJobsSLA 0
scalar FogSequentialForward.fog[1].dispatcher jobs_class_1 9931
scalar FogSequentialForward.fog[1].dispatcher remoteJobs_class_1 951
scalar FogSequentialForward.fog[1].dispatcher localJobs_class_1 8980
scalar FogSequentialForward.fog[1].server[0] rho 0.99981999397278
scalar FogSequentialForward.fog[1].server[0] congestionRatio 0
scalar FogSequentialForward.fog[1].server[0] totalJobs 8980
scalar FogSequentialForward.fog[1].server[0] droppedJobsQueue 6
scalar FogSequentialForward.fog[1].server[0] droppedJobsTimout 0
scalar FogSequentialForward.fog[1].server[0] droppedJobsSLA 5623
scalar FogSequentialForward.fog[1].server[0] droppedJobsTotal 5629
scalar FogSequentialForward.fog[2].dispatcher localJobs 9021
scalar FogSequentialForward.fog[2].dispatcher internalJobs 9069
scalar FogSequentialForward.fog[2].dispatcher externalJobs 1017
scalar FogSequentialForward.fog[2].dispatcher remoteJobs 1065
scalar FogSequentialForward.fog[2].dispatcher probeQueries 0
scalar FogSequentialForward.fog[2].dispatcher probeAnswers 0
scalar FogSequentialForward.fog[2].dispatcher droppedJobsSLA 0
scalar FogSequentialForward.fog[2].dispatcher jobs_class_1 10086
scalar FogSequentialForward.fog[2].dispatcher remoteJobs_class_1 1065
scalar FogSequentialForward.fog[2].dispatcher localJobs_class_1 9021
scalar FogSequentialForward.fog[2].server[0] rho 1
scalar FogSequentialForward.fog[2].server[0] congestionRatio 0
scalar FogSequentialForward.fog[2].server[0] totalJobs 9021
scalar FogSequentialForward.fog[2].server[0] droppedJobsQueue 6
scalar FogSequentialForward.fog[2].server[0] droppedJobsTimout 0
scalar FogSequentialForward.fog[2].server[0] droppedJobsSLA 5678
scalar FogSequentialForward.fog[2].server[0] droppedJobsTotal 5684
scalar FogSequentialForward.fog[3].dispatcher localJobs 8939
scalar FogSequentialForward.fog[3].dispatcher internalJobs 8832
scalar FogSequentialForward.fog[3].dispatcher externalJobs 1037
scalar FogSequentialForward.fog[3].dispatcher remoteJobs 930
scalar FogSequentialForward.fog[3].dispatcher probeQueries 0
scalar FogSequentialForward.fog[3].dispatcher probeAnswers 0
scalar FogSequentialForward.fog[3].dispatcher droppedJobsSLA 0
scalar FogSequentialForward.fog[3].dispatcher jobs_class_1 9869
scalar FogSequentialForward.fog[3].dispatcher remoteJobs_class_1 930
scalar FogSequentialForward.fog[3].dispatcher localJobs_class_1 8939
scalar FogSequentialForward.fog[3].server[0] rho 1
scalar FogSequentialForward.fog[3].server[0] congestionRatio 0
scalar FogSequentialForward.fog[3].server[0] totalJobs 8939
scalar FogSequentialForward.fog[3].server[0] droppedJobsQueue 8
scalar FogSequentialForward.fog[3].server[0] droppedJobsTimout 0
scalar FogSequentialForward.fog[3].server[0] droppedJobsSLA 5461
scalar FogSequentialForward.fog[3].server[0] droppedJobsTotal 5469
scalar FogSequentialForward.fog[4].dispatcher localJobs 9052
scalar FogSequentialForward.fog[4].dispatcher internalJobs 8999
scalar FogSequentialForward.fog[4].dispatcher externalJobs 1094
scalar FogSequentialForward.fog[4].dispatcher remoteJobs 1041
scalar FogSequentialForward.fog[4].dispatcher probeQueries 0
scalar FogSequentialForward.fog[4].dispatcher probeAnswers 0
scalar FogSequentialForward.fog[4].dispatcher droppedJobsSLA 0
scalar FogSequentialForward.fog[4].dispatcher jobs_class_1 10093
scalar FogSequentialForward.fog[4].dispatcher remoteJobs_class_1 1041
scalar FogSequentialForward.fog[4].dispatcher localJobs_class_1 9052
scalar FogSequentialForward.fog[4].server[0] rho 1
scalar FogSequentialForward.fog[4].server[0] congestionRatio 0
scalar FogSequentialForward.fog[4].server[0] totalJobs 9052
scalar FogSequentialForward.fog[4].server[0] droppedJobsQueue 6
scalar FogSequentialForward.fog[4].server[0] droppedJobsTimout 0
scalar FogSequentialForward.fog[4].server[0] droppedJobsSLA 5632
scalar FogSequentialForward.fog[4].server[0] droppedJobsTotal 5638
scalar FogSequentialForward.fog[5].dispatcher localJobs 8994
scalar FogSequentialForward.fog[5].dispatcher internalJobs 9027
scalar FogSequentialForward.fog[5].dispatcher externalJobs 990
scalar FogSequentialForward.fog[5].dispatcher remoteJobs 1023
scalar FogSequentialForward.fog[5].dispatcher probeQueries 0
scalar FogSequentialForward.fog[5].dispatcher probeAnswers 0
scalar FogSequentialForward.fog[5].dispatcher droppedJobsSLA 0
scalar FogSequentialForward.fog[5].dispatcher jobs_class_1 10017
scalar FogSequentialForward.fog[5].dispatcher remoteJobs_class_1 1023
scalar FogSequentialForward.fog[5].dispatcher localJobs_class_1 8994
scalar FogSequentialForward.fog[5].server[0] rho 0.99985301494598
scalar FogSequentialForward.fog[5].server[0] congestionRatio 0
scalar FogSequentialForward.fog[5].server[0] totalJobs 8994
scalar FogSequentialForward.fog[5].server[0] droppedJobsQueue 8
scalar FogSequentialForward.fog[5].server[0] droppedJobsTimout 0
scalar FogSequentialForward.fog[5].server[0] droppedJobsSLA 5497
scalar FogSequentialForward.fog[5].server[0] droppedJobsTotal 5505
scalar FogSequentialForward.fog[6].dispatcher localJobs 8960
scalar FogSequentialForward.fog[6].dispatcher internalJobs 8903
scalar FogSequentialForward.fog[6].dispatcher externalJobs 1040
scalar FogSequentialForward.fog[6].dispatcher remoteJobs 983
scalar FogSequentialForward.fog[6].dispatcher probeQueries 0
scalar FogSequentialForward.fog[6].dispatcher probeAnswers 0
scalar FogSequentialForward.fog[6].dispatcher droppedJobsSLA 0
scalar FogSequentialForward.fog[6].dispatcher jobs_class_1 9943
scalar FogSequentialForward.fog[6].dispatcher remoteJobs_class_1 983
scalar FogSequentialForward.fog[6].dispatcher localJobs_class_1 8960
scalar FogSequentialForward.fog[6].server[0] rho 1
scalar FogSequentialForward.fog[6].server[0] congestionRatio 0
scalar FogSequentialForward.fog[6].server[0] totalJobs 8960
scalar FogSequentialForward.fog[6].server[0] droppedJobsQueue 5
scalar FogSequentialForward.fog[6].server[0] droppedJobsTimout 0
scalar FogSequentialForward.fog[6].server[0] droppedJobsSLA 5599
scalar FogSequentialForward.fog[6].server[0] droppedJobsTotal 5604
scalar FogSequentialForward.fog[7].dispatcher localJobs 8971
scalar FogSequentialForward.fog[7].dispatcher internalJobs 9045
scalar FogSequentialForward.fog[7].dispatcher externalJobs 917
scalar FogSequentialForward.fog[7].dispatcher remoteJobs 991
scalar FogSequentialForward.fog[7].dispatcher probeQueries 0
scalar FogSequentialForward.fog[7].dispatcher probeAnswers 0
scalar FogSequentialForward.fog[7].dispatcher droppedJobsSLA 0
scalar FogSequentialForward.fog[7].dispatcher jobs_class_1 9962
scalar FogSequentialForward.fog[7].dispatcher remoteJobs_class_1 991
scalar FogSequentialForward.fog[7].dispatcher localJobs_class_1 8971
scalar FogSequentialForward.fog[7].server[0] rho 0.99972170591354
scalar FogSequentialForward.fog[7].server[0] congestionRatio 0
scalar FogSequentialForward.fog[7].server[0] totalJobs 8971
scalar FogSequentialForward.fog[7].server[0] droppedJobsQueue 7
scalar FogSequentialForward.fog[7].server[0] droppedJobsTimout 0
scalar FogSequentialForward.fog[7].server[0] droppedJobsSLA 5518
scalar FogSequentialForward.fog[7].server[0] droppedJobsTotal 5525
scalar FogSequentialForward.fog[8].dispatcher localJobs 9002
scalar FogSequentialForward.fog[8].dispatcher internalJobs 8980
scalar FogSequentialForward.fog[8].dispatcher externalJobs 1017
scalar FogSequentialForward.fog[8].dispatcher remoteJobs 995
scalar FogSequentialForward.fog[8].dispatcher probeQueries 0
scalar FogSequentialForward.fog[8].dispatcher probeAnswers 0
scalar FogSequentialForward.fog[8].dispatcher droppedJobsSLA 0
scalar FogSequentialForward.fog[8].dispatcher jobs_class_1 9997
scalar FogSequentialForward.fog[8].dispatcher remoteJobs_class_1 995
scalar FogSequentialForward.fog[8].dispatcher localJobs_class_1 9002
scalar FogSequentialForward.fog[8].server[0] rho 0.99911135435104
scalar FogSequentialForward.fog[8].server[0] congestionRatio 0
scalar FogSequentialForward.fog[8].server[0] totalJobs 9002
scalar FogSequentialForward.fog[8].server[0] droppedJobsQueue 2
scalar FogSequentialForward.fog[8].server[0] droppedJobsTimout 0
scalar FogSequentialForward.fog[8].server[0] droppedJobsSLA 5623
scalar FogSequentialForward.fog[8].server[0] droppedJobsTotal 5625
scalar FogSequentialForward.fog[9].dispatcher localJobs 9051
scalar FogSequentialForward.fog[9].dispatcher internalJobs 9075
scalar FogSequentialForward.fog[9].dispatcher externalJobs 962
scalar FogSequentialForward.fog[9].dispatcher remoteJobs 986
scalar FogSequentialForward.fog[9].dispatcher probeQueries 0
scalar FogSequentialForward.fog[9].dispatcher probeAnswers 0
scalar FogSequentialForward.fog[9].dispatcher droppedJobsSLA 0
scalar FogSequentialForward.fog[9].dispatcher jobs_class_1 10037
scalar FogSequentialForward.fog[9].dispatcher remoteJobs_class_1 986
scalar FogSequentialForward.fog[9].dispatcher localJobs_class_1 9051
scalar FogSequentialForward.fog[9].server[0] rho 0.99984705448151
scalar FogSequentialForward.fog[9].server[0] congestionRatio 0
scalar FogSequentialForward.fog[9].server[0] totalJobs 9051
scalar FogSequentialForward.fog[9].server[0] droppedJobsQueue 4
scalar FogSequentialForward.fog[9].server[0] droppedJobsTimout 0
scalar FogSequentialForward.fog[9].server[0] droppedJobsSLA 5715
scalar FogSequentialForward.fog[9].server[0] droppedJobsTotal 5719
scalar FogSequentialForward.fog[10].dispatcher localJobs 9022
scalar FogSequentialForward.fog[10].dispatcher internalJobs 9076
scalar FogSequentialForward.fog[10].dispatcher externalJobs 1008
scalar FogSequentialForward.fog[10].dispatcher remoteJobs 1062
scalar FogSequentialForward.fog[10].dispatcher probeQueries 0
scalar FogSequentialForward.fog[10].dispatcher probeAnswers 0
scalar FogSequentialForward.fog[10].dispatcher droppedJobsSLA 0
scalar FogSequentialForward.fog[10].dispatcher jobs_class_1 10084
scalar FogSequentialForward.fog[10].dispatcher remoteJobs_class_1 1062
scalar FogSequentialForward.fog[10].dispatcher localJobs_class_1 9022
scalar FogSequentialForward.fog[10].server[0] rho 0.99994099140167
scalar FogSequentialForward.fog[10].server[0] congestionRatio 0
scalar FogSequentialForward.fog[10].server[0] totalJobs 9022
scalar FogSequentialForward.fog[10].server[0] droppedJobsQueue 5
scalar FogSequentialForward.fog[10].server[0] droppedJobsTimout 0
scalar FogSequentialForward.fog[10].server[0] droppedJobsSLA 5631
scalar FogSequentialForward.fog[10].server[0] droppedJobsTotal 5636
scalar FogSequentialForward.fog[11].dispatcher localJobs 8918
scalar FogSequentialForward.fog[11].dispatcher internalJobs 8980
scalar FogSequentialForward.fog[11].dispatcher externalJobs 966
scalar FogSequentialForward.fog[11].dispatcher remoteJobs 1028
scalar FogSequentialForward.fog[11].dispatcher probeQueries 0
scalar FogSequentialForward.fog[11].dispatcher probeAnswers 0
scalar FogSequentialForward.fog[11].dispatcher droppedJobsSLA 0
scalar FogSequentialForward.fog[11].dispatcher jobs_class_1 9946
scalar FogSequentialForward.fog[11].dispatcher remoteJobs_class_1 1028
scalar FogSequentialForward.fog[11].dispatcher localJobs_class_1 8918
scalar FogSequentialForward.fog[11].server[0] rho 0.99979817867279
scalar FogSequentialForward.fog[11].server[0] congestionRatio 0
scalar FogSequentialForward.fog[11].server[0] totalJobs 8918
scalar FogSequentialForward.fog[11].server[0] droppedJobsQueue 9
scalar FogSequentialForward.fog[11].server[0] droppedJobsTimout 0
scalar FogSequentialForward.fog[11].server[0] droppedJobsSLA 5486
scalar FogSequentialForward.fog[11].server[0] droppedJobsTotal 5495
scalar FogSequentialForward.fog[12].dispatcher localJobs 8958
scalar FogSequentialForward.fog[12].dispatcher internalJobs 8933
scalar FogSequentialForward.fog[12].dispatcher externalJobs 963
scalar FogSequentialForward.fog[12].dispatcher remoteJobs 938
scalar FogSequentialForward.fog[12].dispatcher probeQueries 0
scalar FogSequentialForward.fog[12].dispatcher probeAnswers 0
scalar FogSequentialForward.fog[12].dispatcher droppedJobsSLA 0
scalar FogSequentialForward.fog[12].dispatcher jobs_class_1 9896
scalar FogSequentialForward.fog[12].dispatcher remoteJobs_class_1 938
scalar FogSequentialForward.fog[12].dispatcher localJobs_class_1 8958
scalar FogSequentialForward.fog[12].server[0] rho 0.9997643828392
scalar FogSequentialForward.fog[12].server[0] congestionRatio 0
scalar FogSequentialForward.fog[12].server[0] totalJobs 8958
scalar FogSequentialForward.fog[12].server[0] droppedJobsQueue 5
scalar FogSequentialForward.fog[12].server[0] droppedJobsTimout 0
scalar FogSequentialForward.fog[12].server[0] droppedJobsSLA 5585
scalar FogSequentialForward.fog[12].server[0] droppedJobsTotal 5590
scalar FogSequentialForward.fog[13].dispatcher localJobs 8964
scalar FogSequentialForward.fog[13].dispatcher internalJobs 8949
scalar FogSequentialForward.fog[13].dispatcher externalJobs 987
scalar FogSequentialForward.fog[13].dispatcher remoteJobs 972
scalar FogSequentialForward.fog[13].dispatcher probeQueries 0
scalar FogSequentialForward.fog[13].dispatcher probeAnswers 0
scalar FogSequentialForward.fog[13].dispatcher droppedJobsSLA 0
scalar FogSequentialForward.fog[13].dispatcher jobs_class_1 9936
scalar FogSequentialForward.fog[13].dispatcher remoteJobs_class_1 972
scalar FogSequentialForward.fog[13].dispatcher localJobs_class_1 8964
scalar FogSequentialForward.fog[13].server[0] rho 1
scalar FogSequentialForward.fog[13].server[0] congestionRatio 0
scalar FogSequentialForward.fog[13].server[0] totalJobs 8964
scalar FogSequentialForward.fog[13].server[0] droppedJobsQueue 4
scalar FogSequentialForward.fog[13].server[0] droppedJobsTimout 0
scalar FogSequentialForward.fog[13].server[0] droppedJobsSLA 5571
scalar FogSequentialForward.fog[13].server[0] droppedJobsTotal 5575
scalar FogSequentialForward.fog[14].dispatcher localJobs 9212
scalar FogSequentialForward.fog[14].dispatcher internalJobs 9204
scalar FogSequentialForward.fog[14].dispatcher externalJobs 1084
scalar FogSequentialForward.fog[14].dispatcher remoteJobs 1076
scalar FogSequentialForward.fog[14].dispatcher probeQueries 0
scalar FogSequentialForward.fog[14].dispatcher probeAnswers 0
scalar FogSequentialForward.fog[14].dispatcher droppedJobsSLA 0
scalar FogSequentialForward.fog[14].dispatcher jobs_class_1 10288
scalar FogSequentialForward.fog[14].dispatcher remoteJobs_class_1 1076
scalar FogSequentialForward.fog[14].dispatcher localJobs_class_1 9212
scalar FogSequentialForward.fog[14].server[0] rho 1
scalar FogSequentialForward.fog[14].server[0] congestionRatio 0
scalar FogSequentialForward.fog[14].server[0] totalJobs 9212
scalar FogSequentialForward.fog[14].server[0] droppedJobsQueue 7
scalar FogSequentialForward.fog[14].server[0] droppedJobsTimout 0
scalar FogSequentialForward.fog[14].server[0] droppedJobsSLA 6119
scalar FogSequentialForward.fog[14].server[0] droppedJobsTotal 6126
scalar FogSequentialForward.fog[15].dispatcher localJobs 9111
scalar FogSequentialForward.fog[15].dispatcher internalJobs 9171
scalar FogSequentialForward.fog[15].dispatcher externalJobs 1022
scalar FogSequentialForward.fog[15].dispatcher remoteJobs 1082
scalar FogSequentialForward.fog[15].dispatcher probeQueries 0
scalar FogSequentialForward.fog[15].dispatcher probeAnswers 0
scalar FogSequentialForward.fog[15].dispatcher droppedJobsSLA 0
scalar FogSequentialForward.fog[15].dispatcher jobs_class_1 10193
scalar FogSequentialForward.fog[15].dispatcher remoteJobs_class_1 1082
scalar FogSequentialForward.fog[15].dispatcher localJobs_class_1 9111
scalar FogSequentialForward.fog[15].server[0] rho 0.99979853630066
scalar FogSequentialForward.fog[15].server[0] congestionRatio 0
scalar FogSequentialForward.fog[15].server[0] totalJobs 9111
scalar FogSequentialForward.fog[15].server[0] droppedJobsQueue 2
scalar FogSequentialForward.fog[15].server[0] droppedJobsTimout 0
scalar FogSequentialForward.fog[15].server[0] droppedJobsSLA 5792
scalar FogSequentialForward.fog[15].server[0] droppedJobsTotal 5794
scalar FogSequentialForward.fog[16].dispatcher localJobs 9004
scalar FogSequentialForward.fog[16].dispatcher internalJobs 9017
scalar FogSequentialForward.fog[16].dispatcher externalJobs 1035
scalar FogSequentialForward.fog[16].dispatcher remoteJobs 1048
scalar FogSequentialForward.fog[16].dispatcher probeQueries 0
scalar FogSequentialForward.fog[16].dispatcher probeAnswers 0
scalar FogSequentialForward.fog[16].dispatcher droppedJobsSLA 0
scalar FogSequentialForward.fog[16].dispatcher jobs_class_1 10052
scalar FogSequentialForward.fog[16].dispatcher remoteJobs_class_1 1048
scalar FogSequentialForward.fog[16].dispatcher localJobs_class_1 9004
scalar FogSequentialForward.fog[16].server[0] rho 0.9999116063118
scalar FogSequentialForward.fog[16].server[0] congestionRatio 0
scalar FogSequentialForward.fog[16].server[0] totalJobs 9004
scalar FogSequentialForward.fog[16].server[0] droppedJobsQueue 5
scalar FogSequentialForward.fog[16].server[0] droppedJobsTimout 0
scalar FogSequentialForward.fog[16].server[0] droppedJobsSLA 5633
scalar FogSequentialForward.fog[16].server[0] droppedJobsTotal 5638
scalar FogSequentialForward.fog[17].dispatcher localJobs 8957
scalar FogSequentialForward.fog[17].dispatcher internalJobs 8932
scalar FogSequentialForward.fog[17].dispatcher externalJobs 1000
scalar FogSequentialForward.fog[17].dispatcher remoteJobs 975
scalar FogSequentialForward.fog[17].dispatcher probeQueries 0
scalar FogSequentialForward.fog[17].dispatcher probeAnswers 0
scalar FogSequentialForward.fog[17].dispatcher droppedJobsSLA 0
scalar FogSequentialForward.fog[17].dispatcher jobs_class_1 9932
scalar FogSequentialForward.fog[17].dispatcher remoteJobs_class_1 975
scalar FogSequentialForward.fog[17].dispatcher localJobs_class_1 8957
scalar FogSequentialForward.fog[17].server[0] rho 0.99980157613754
scalar FogSequentialForward.fog[17].server[0] congestionRatio 0
scalar FogSequentialForward.fog[17].server[0] totalJobs 8957
scalar FogSequentialForward.fog[17].server[0] droppedJobsQueue 4
scalar FogSequentialForward.fog[17].server[0] droppedJobsTimout 0
scalar FogSequentialForward.fog[17].server[0] droppedJobsSLA 5485
scalar FogSequentialForward.fog[17].server[0] droppedJobsTotal 5489
scalar FogSequentialForward.fog[18].dispatcher localJobs 9062
scalar FogSequentialForward.fog[18].dispatcher internalJobs 9096
scalar FogSequentialForward.fog[18].dispatcher externalJobs 982
scalar FogSequentialForward.fog[18].dispatcher remoteJobs 1016
scalar FogSequentialForward.fog[18].dispatcher probeQueries 0
scalar FogSequentialForward.fog[18].dispatcher probeAnswers 0
scalar FogSequentialForward.fog[18].dispatcher droppedJobsSLA 0
scalar FogSequentialForward.fog[18].dispatcher jobs_class_1 10078
scalar FogSequentialForward.fog[18].dispatcher remoteJobs_class_1 1016
scalar FogSequentialForward.fog[18].dispatcher localJobs_class_1 9062
scalar FogSequentialForward.fog[18].server[0] rho 0.99994397163391
scalar FogSequentialForward.fog[18].server[0] congestionRatio 0
scalar FogSequentialForward.fog[18].server[0] totalJobs 9062
scalar FogSequentialForward.fog[18].server[0] droppedJobsQueue 2
scalar FogSequentialForward.fog[18].server[0] droppedJobsTimout 0
scalar FogSequentialForward.fog[18].server[0] droppedJobsSLA 5739
scalar FogSequentialForward.fog[18].server[0] droppedJobsTotal 5741
scalar FogSequentialForward.fog[19].dispatcher localJobs 9083
scalar FogSequentialForward.fog[19].dispatcher internalJobs 9195
scalar FogSequentialForward.fog[19].dispatcher externalJobs 1027
scalar FogSequentialForward.fog[19].dispatcher remoteJobs 1139
scalar FogSequentialForward.fog[19].dispatcher probeQueries 0
scalar FogSequentialForward.fog[19].dispatcher probeAnswers 0
scalar FogSequentialForward.fog[19].dispatcher droppedJobsSLA 0
scalar FogSequentialForward.fog[19].dispatcher jobs_class_1 10222
scalar FogSequentialForward.fog[19].dispatcher remoteJobs_class_1 1139
scalar FogSequentialForward.fog[19].dispatcher localJobs_class_1 9083
scalar FogSequentialForward.fog[19].server[0] rho 1
scalar FogSequentialForward.fog[19].server[0] congestionRatio 0
scalar FogSequentialForward.fog[19].server[0] totalJobs 9083
scalar FogSequentialForward.fog[19].server[0] droppedJobsQueue 1
scalar FogSequentialForward.fog[19].server[0] droppedJobsTimout 0
scalar FogSequentialForward.fog[19].server[0] droppedJobsSLA 5797
scalar FogSequentialForward.fog[19].server[0] droppedJobsTotal 5798
scalar FogSequentialForward.fog[20].dispatcher localJobs 8966
scalar FogSequentialForward.fog[20].dispatcher internalJobs 8945
scalar FogSequentialForward.fog[20].dispatcher externalJobs 988
scalar FogSequentialForward.fog[20].dispatcher remoteJobs 967
scalar FogSequentialForward.fog[20].dispatcher probeQueries 0
scalar FogSequentialForward.fog[20].dispatcher probeAnswers 0
scalar FogSequentialForward.fog[20].dispatcher droppedJobsSLA 0
scalar FogSequentialForward.fog[20].dispatcher jobs_class_1 9933
scalar FogSequentialForward.fog[20].dispatcher remoteJobs_class_1 967
scalar FogSequentialForward.fog[20].dispatcher localJobs_class_1 8966
scalar FogSequentialForward.fog[20].server[0] rho 1
scalar FogSequentialForward.fog[20].server[0] congestionRatio 0
scalar FogSequentialForward.fog[20].server[0] totalJobs 8966
scalar FogSequentialForward.fog[20].server[0] droppedJobsQueue 8
scalar FogSequentialForward.fog[20].server[0] droppedJobsTimout 0
scalar FogSequentialForward.fog[20].server[0] droppedJobsSLA 5504
scalar FogSequentialForward.fog[20].server[0] droppedJobsTotal 5512
scalar FogSequentialForward.fog[21].dispatcher localJobs 9069
scalar FogSequentialForward.fog[21].dispatcher internalJobs 9137
scalar FogSequentialForward.fog[21].dispatcher externalJobs 973
scalar FogSequentialForward.fog[21].dispatcher remoteJobs 1041
scalar FogSequentialForward.fog[21].dispatcher probeQueries 0
scalar FogSequentialForward.fog[21].dispatcher probeAnswers 0
scalar FogSequentialForward.fog[21].dispatcher droppedJobsSLA 0
scalar FogSequentialForward.fog[21].dispatcher jobs_class_1 10110
scalar FogSequentialForward.fog[21].dispatcher remoteJobs_class_1 1041
scalar FogSequentialForward.fog[21].dispatcher localJobs_class_1 9069
scalar FogSequentialForward.fog[21].server[0] rho 1
scalar FogSequentialForward.fog[21].server[0] congestionRatio 0
scalar FogSequentialForward.fog[21].server[0] totalJobs 9069
scalar FogSequentialForward.fog[21].server[0] droppedJobsQueue 3
scalar FogSequentialForward.fog[21].server[0] droppedJobsTimout 0
scalar FogSequentialForward.fog[21].server[0] droppedJobsSLA 5634
scalar FogSequentialForward.fog[21].server[0] droppedJobsTotal 5637
scalar FogSequentialForward.fog[22].dispatcher localJobs 9003
scalar FogSequentialForward.fog[22].dispatcher internalJobs 9031
scalar FogSequentialForward.fog[22].dispatcher externalJobs 943
scalar FogSequentialForward.fog[22].dispatcher remoteJobs 971
scalar FogSequentialForward.fog[22].dispatcher probeQueries 0
scalar FogSequentialForward.fog[22].dispatcher probeAnswers 0
scalar FogSequentialForward.fog[22].dispatcher droppedJobsSLA 0
scalar FogSequentialForward.fog[22].dispatcher jobs_class_1 9974
scalar FogSequentialForward.fog[22].dispatcher remoteJobs_class_1 971
scalar FogSequentialForward.fog[22].dispatcher localJobs_class_1 9003
scalar FogSequentialForward.fog[22].server[0] rho 0.99999159574509
scalar FogSequentialForward.fog[22].server[0] congestionRatio 0
scalar FogSequentialForward.fog[22].server[0] totalJobs 9003
scalar FogSequentialForward.fog[22].server[0] droppedJobsQueue 8
scalar FogSequentialForward.fog[22].server[0] droppedJobsTimout 0
scalar FogSequentialForward.fog[22].server[0] droppedJobsSLA 5737
scalar FogSequentialForward.fog[22].server[0] droppedJobsTotal 5745
scalar FogSequentialForward.fog[23].dispatcher localJobs 8975
scalar FogSequentialForward.fog[23].dispatcher internalJobs 8867
scalar FogSequentialForward.fog[23].dispatcher externalJobs 1029
scalar FogSequentialForward.fog[23].dispatcher remoteJobs 921
scalar FogSequentialForward.fog[23].dispatcher probeQueries 0
scalar FogSequentialForward.fog[23].dispatcher probeAnswers 0
scalar FogSequentialForward.fog[23].dispatcher droppedJobsSLA 0
scalar FogSequentialForward.fog[23].dispatcher jobs_class_1 9896
scalar FogSequentialForward.fog[23].dispatcher remoteJobs_class_1 921
scalar FogSequentialForward.fog[23].dispatcher localJobs_class_1 8975
scalar FogSequentialForward.fog[23].server[0] rho 0.99947732686996
scalar FogSequentialForward.fog[23].server[0] congestionRatio 0
scalar FogSequentialForward.fog[23].server[0] totalJobs 8975
scalar FogSequentialForward.fog[23].server[0] droppedJobsQueue 8
scalar FogSequentialForward.fog[23].server[0] droppedJobsTimout 0
scalar FogSequentialForward.fog[23].server[0] droppedJobsSLA 5535
scalar FogSequentialForward.fog[23].server[0] droppedJobsTotal 5543
scalar FogSequentialForward.fog[24].dispatcher localJobs 9028
scalar FogSequentialForward.fog[24].dispatcher internalJobs 9054
scalar FogSequentialForward.fog[24].dispatcher externalJobs 1058
scalar FogSequentialForward.fog[24].dispatcher remoteJobs 1084
scalar FogSequentialForward.fog[24].dispatcher probeQueries 0
scalar FogSequentialForward.fog[24].dispatcher probeAnswers 0
scalar FogSequentialForward.fog[24].dispatcher droppedJobsSLA 0
scalar FogSequentialForward.fog[24].dispatcher jobs_class_1 10112
scalar FogSequentialForward.fog[24].dispatcher remoteJobs_class_1 1084
scalar FogSequentialForward.fog[24].dispatcher localJobs_class_1 9028
scalar FogSequentialForward.fog[24].server[0] rho 0.99991971254349
scalar FogSequentialForward.fog[24].server[0] congestionRatio 0
scalar FogSequentialForward.fog[24].server[0] totalJobs 9028
scalar FogSequentialForward.fog[24].server[0] droppedJobsQueue 7
scalar FogSequentialForward.fog[24].server[0] droppedJobsTimout 0
scalar FogSequentialForward.fog[24].server[0] droppedJobsSLA 5643
scalar FogSequentialForward.fog[24].server[0] droppedJobsTotal 5650
scalar FogSequentialForward.fog[25].dispatcher localJobs 9113
scalar FogSequentialForward.fog[25].dispatcher internalJobs 9207
scalar FogSequentialForward.fog[25].dispatcher externalJobs 1001
scalar FogSequentialForward.fog[25].dispatcher remoteJobs 1095
scalar FogSequentialForward.fog[25].dispatcher probeQueries 0
scalar FogSequentialForward.fog[25].dispatcher probeAnswers 0
scalar FogSequentialForward.fog[25].dispatcher droppedJobsSLA 0
scalar FogSequentialForward.fog[25].dispatcher jobs_class_1 10208
scalar FogSequentialForward.fog[25].dispatcher remoteJobs_class_1 1095
scalar FogSequentialForward.fog[25].dispatcher localJobs_class_1 9113
scalar FogSequentialForward.fog[25].server[0] rho 1
scalar FogSequentialForward.fog[25].server[0] congestionRatio 0
scalar FogSequentialForward.fog[25].server[0] totalJobs 9113
scalar FogSequentialForward.fog[25].server[0] droppedJobsQueue 10
scalar FogSequentialForward.fog[25].server[0] droppedJobsTimout 0
scalar FogSequentialForward.fog[25].server[0] droppedJobsSLA 5745
scalar FogSequentialForward.fog[25].server[0] droppedJobsTotal 5755
scalar FogSequentialForward.fog[26].dispatcher localJobs 9071
scalar FogSequentialForward.fog[26].dispatcher internalJobs 9161
scalar FogSequentialForward.fog[26].dispatcher externalJobs 986
scalar FogSequentialForward.fog[26].dispatcher remoteJobs 1076
scalar FogSequentialForward.fog[26].dispatcher probeQueries 0
scalar FogSequentialForward.fog[26].dispatcher probeAnswers 0
scalar FogSequentialForward.fog[26].dispatcher droppedJobsSLA 0
scalar FogSequentialForward.fog[26].dispatcher jobs_class_1 10147
scalar FogSequentialForward.fog[26].dispatcher remoteJobs_class_1 1076
scalar FogSequentialForward.fog[26].dispatcher localJobs_class_1 9071
scalar FogSequentialForward.fog[26].server[0] rho 0.99978739023209
scalar FogSequentialForward.fog[26].server[0] congestionRatio 0
scalar FogSequentialForward.fog[26].server[0] totalJobs 9071
scalar FogSequentialForward.fog[26].server[0] droppedJobsQueue 10
scalar FogSequentialForward.fog[26].server[0] droppedJobsTimout 0
scalar FogSequentialForward.fog[26].server[0] droppedJobsSLA 5688
scalar FogSequentialForward.fog[26].server[0] droppedJobsTotal 5698
scalar FogSequentialForward.fog[27].dispatcher localJobs 8981
scalar FogSequentialForward.fog[27].dispatcher internalJobs 8928
scalar FogSequentialForward.fog[27].dispatcher externalJobs 997
scalar FogSequentialForward.fog[27].dispatcher remoteJobs 944
scalar FogSequentialForward.fog[27].dispatcher probeQueries 0
scalar FogSequentialForward.fog[27].dispatcher probeAnswers 0
scalar FogSequentialForward.fog[27].dispatcher droppedJobsSLA 0
scalar FogSequentialForward.fog[27].dispatcher jobs_class_1 9925
scalar FogSequentialForward.fog[27].dispatcher remoteJobs_class_1 944
scalar FogSequentialForward.fog[27].dispatcher localJobs_class_1 8981
scalar FogSequentialForward.fog[27].server[0] rho 0.99961644411087
scalar FogSequentialForward.fog[27].server[0] congestionRatio 0
scalar FogSequentialForward.fog[27].server[0] totalJobs 8981
scalar FogSequentialForward.fog[27].server[0] droppedJobsQueue 6
scalar FogSequentialForward.fog[27].server[0] droppedJobsTimout 0
scalar FogSequentialForward.fog[27].server[0] droppedJobsSLA 5591
scalar FogSequentialForward.fog[27].server[0] droppedJobsTotal 5597
scalar FogSequentialForward.fog[28].dispatcher localJobs 9060
scalar FogSequentialForward.fog[28].dispatcher internalJobs 9067
scalar FogSequentialForward.fog[28].dispatcher externalJobs 1008
scalar FogSequentialForward.fog[28].dispatcher remoteJobs 1015
scalar FogSequentialForward.fog[28].dispatcher probeQueries 0
scalar FogSequentialForward.fog[28].dispatcher probeAnswers 0
scalar FogSequentialForward.fog[28].dispatcher droppedJobsSLA 0
scalar FogSequentialForward.fog[28].dispatcher jobs_class_1 10075
scalar FogSequentialForward.fog[28].dispatcher remoteJobs_class_1 1015
scalar FogSequentialForward.fog[28].dispatcher localJobs_class_1 9060
scalar FogSequentialForward.fog[28].server[0] rho 1
scalar FogSequentialForward.fog[28].server[0] congestionRatio 0
scalar FogSequentialForward.fog[28].server[0] totalJobs 9060
scalar FogSequentialForward.fog[28].server[0] droppedJobsQueue 6
scalar FogSequentialForward.fog[28].server[0] droppedJobsTimout 0
scalar FogSequentialForward.fog[28].server[0] droppedJobsSLA 5737
scalar FogSequentialForward.fog[28].server[0] droppedJobsTotal 5743
scalar FogSequentialForward.fog[29].dispatcher localJobs 9064
scalar FogSequentialForward.fog[29].dispatcher internalJobs 9211
scalar FogSequentialForward.fog[29].dispatcher externalJobs 972
scalar FogSequentialForward.fog[29].dispatcher remoteJobs 1119
scalar FogSequentialForward.fog[29].dispatcher probeQueries 0
scalar FogSequentialForward.fog[29].dispatcher probeAnswers 0
scalar FogSequentialForward.fog[29].dispatcher droppedJobsSLA 0
scalar FogSequentialForward.fog[29].dispatcher jobs_class_1 10183
scalar FogSequentialForward.fog[29].dispatcher remoteJobs_class_1 1119
scalar FogSequentialForward.fog[29].dispatcher localJobs_class_1 9064
scalar FogSequentialForward.fog[29].server[0] rho 1
scalar FogSequentialForward.fog[29].server[0] congestionRatio 0
scalar FogSequentialForward.fog[29].server[0] totalJobs 9064
scalar FogSequentialForward.fog[29].server[0] droppedJobsQueue 3
scalar FogSequentialForward.fog[29].server[0] droppedJobsTimout 0
scalar FogSequentialForward.fog[29].server[0] droppedJobsSLA 5711
scalar FogSequentialForward.fog[29].server[0] droppedJobsTotal 5714
scalar FogSequentialForward.fog[30].dispatcher localJobs 9084
scalar FogSequentialForward.fog[30].dispatcher internalJobs 9037
scalar FogSequentialForward.fog[30].dispatcher externalJobs 1065
scalar FogSequentialForward.fog[30].dispatcher remoteJobs 1018
scalar FogSequentialForward.fog[30].dispatcher probeQueries 0
scalar FogSequentialForward.fog[30].dispatcher probeAnswers 0
scalar FogSequentialForward.fog[30].dispatcher droppedJobsSLA 0
scalar FogSequentialForward.fog[30].dispatcher jobs_class_1 10102
scalar FogSequentialForward.fog[30].dispatcher remoteJobs_class_1 1018
scalar FogSequentialForward.fog[30].dispatcher localJobs_class_1 9084
scalar FogSequentialForward.fog[30].server[0] rho 0.99954670667648
scalar FogSequentialForward.fog[30].server[0] congestionRatio 0
scalar FogSequentialForward.fog[30].server[0] totalJobs 9084
scalar FogSequentialForward.fog[30].server[0] droppedJobsQueue 6
scalar FogSequentialForward.fog[30].server[0] droppedJobsTimout 0
scalar FogSequentialForward.fog[30].server[0] droppedJobsSLA 5769
scalar FogSequentialForward.fog[30].server[0] droppedJobsTotal 5775
scalar FogSequentialForward.fog[31].dispatcher localJobs 9088
scalar FogSequentialForward.fog[31].dispatcher internalJobs 9088
scalar FogSequentialForward.fog[31].dispatcher externalJobs 1061
scalar FogSequentialForward.fog[31].dispatcher remoteJobs 1061
scalar FogSequentialForward.fog[31].dispatcher probeQueries 0
scalar FogSequentialForward.fog[31].dispatcher probeAnswers 0
scalar FogSequentialForward.fog[31].dispatcher droppedJobsSLA 0
scalar FogSequentialForward.fog[31].dispatcher jobs_class_1 10149
scalar FogSequentialForward.fog[31].dispatcher remoteJobs_class_1 1061
scalar FogSequentialForward.fog[31].dispatcher localJobs_class_1 9088
scalar FogSequentialForward.fog[31].server[0] rho 1
scalar FogSequentialForward.fog[31].server[0] congestionRatio 0
scalar FogSequentialForward.fog[31].server[0] totalJobs 9088
scalar FogSequentialForward.fog[31].server[0] droppedJobsQueue 7
scalar FogSequentialForward.fog[31].server[0] droppedJobsTimout 0
scalar FogSequentialForward.fog[31].server[0] droppedJobsSLA 5686
scalar FogSequentialForward.fog[31].server[0] droppedJobsTotal 5693
scalar FogSequentialForward.fog[32].dispatcher localJobs 8979
scalar FogSequentialForward.fog[32].dispatcher internalJobs 8943
scalar FogSequentialForward.fog[32].dispatcher externalJobs 1052
scalar FogSequentialForward.fog[32].dispatcher remoteJobs 1016
scalar FogSequentialForward.fog[32].dispatcher probeQueries 0
scalar FogSequentialForward.fog[32].dispatcher probeAnswers 0
scalar FogSequentialForward.fog[32].dispatcher droppedJobsSLA 0
scalar FogSequentialForward.fog[32].dispatcher jobs_class_1 9995
scalar FogSequentialForward.fog[32].dispatcher remoteJobs_class_1 1016
scalar FogSequentialForward.fog[32].dispatcher localJobs_class_1 8979
scalar FogSequentialForward.fog[32].server[0] rho 0.99939399957657
scalar FogSequentialForward.fog[32].server[0] congestionRatio 0
scalar FogSequentialForward.fog[32].server[0] totalJobs 8979
scalar FogSequentialForward.fog[32].server[0] droppedJobsQueue 7
scalar FogSequentialForward.fog[32].server[0] droppedJobsTimout 0
scalar FogSequentialForward.fog[32].server[0] droppedJobsSLA 5508
scalar FogSequentialForward.fog[32].server[0] droppedJobsTotal 5515
scalar FogSequentialForward.fog[33].dispatcher localJobs 9124
scalar FogSequentialForward.fog[33].dispatcher internalJobs 9249
scalar FogSequentialForward.fog[33].dispatcher externalJobs 1009
scalar FogSequentialForward.fog[33].dispatcher remoteJobs 1134
scalar FogSequentialForward.fog[33].dispatcher probeQueries 0
scalar FogSequentialForward.fog[33].dispatcher probeAnswers 0
scalar FogSequentialForward.fog[33].dispatcher droppedJobsSLA 0
scalar FogSequentialForward.fog[33].dispatcher jobs_class_1 10258
scalar FogSequentialForward.fog[33].dispatcher remoteJobs_class_1 1134
scalar FogSequentialForward.fog[33].dispatcher localJobs_class_1 9124
scalar FogSequentialForward.fog[33].server[0] rho 0.99996227025986
scalar FogSequentialForward.fog[33].server[0] congestionRatio 0
scalar FogSequentialForward.fog[33].server[0] totalJobs 9124
scalar FogSequentialForward.fog[33].server[0] droppedJobsQueue 6
scalar FogSequentialForward.fog[33].server[0] droppedJobsTimout 0
scalar FogSequentialForward.fog[33].server[0] droppedJobsSLA 5837
scalar FogSequentialForward.fog[33].server[0] droppedJobsTotal 5843
scalar FogSequentialForward.fog[34].dispatcher localJobs 8999
scalar FogSequentialForward.fog[34].dispatcher internalJobs 8877
scalar FogSequentialForward.fog[34].dispatcher externalJobs 1005
scalar FogSequentialForward.fog[34].dispatcher remoteJobs 883
scalar FogSequentialForward.fog[34].dispatcher probeQueries 0
scalar FogSequentialForward.fog[34].dispatcher probeAnswers 0
scalar FogSequentialForward.fog[34].dispatcher droppedJobsSLA 0
scalar FogSequentialForward.fog[34].dispatcher jobs_class_1 9882
scalar FogSequentialForward.fog[34].dispatcher remoteJobs_class_1 883
scalar FogSequentialForward.fog[34].dispatcher localJobs_class_1 8999
scalar FogSequentialForward.fog[34].server[0] rho 1
scalar FogSequentialForward.fog[34].server[0] congestionRatio 0
scalar FogSequentialForward.fog[34].server[0] totalJobs 8999
scalar FogSequentialForward.fog[34].server[0] droppedJobsQueue 5
scalar FogSequentialForward.fog[34].server[0] droppedJobsTimout 0
scalar FogSequentialForward.fog[34].server[0] droppedJobsSLA 5624
scalar FogSequentialForward.fog[34].server[0] droppedJobsTotal 5629
scalar FogSequentialForward.fog[35].dispatcher localJobs 9031
scalar FogSequentialForward.fog[35].dispatcher internalJobs 8969
scalar FogSequentialForward.fog[35].dispatcher externalJobs 997
scalar FogSequentialForward.fog[35].dispatcher remoteJobs 935
scalar FogSequentialForward.fog[35].dispatcher probeQueries 0
scalar FogSequentialForward.fog[35].dispatcher probeAnswers 0
scalar FogSequentialForward.fog[35].dispatcher droppedJobsSLA 0
scalar FogSequentialForward.fog[35].dispatcher jobs_class_1 9966
scalar FogSequentialForward.fog[35].dispatcher remoteJobs_class_1 935
scalar FogSequentialForward.fog[35].dispatcher localJobs_class_1 9031
scalar FogSequentialForward.fog[35].server[0] rho 0.99995613098145
scalar FogSequentialForward.fog[35].server[0] congestionRatio 0
scalar FogSequentialForward.fog[35].server[0] totalJobs 9031
scalar FogSequentialForward.fog[35].server[0] droppedJobsQueue 4
scalar FogSequentialForward.fog[35].server[0] droppedJobsTimout 0
scalar FogSequentialForward.fog[35].server[0] droppedJobsSLA 5576
scalar FogSequentialForward.fog[35].server[0] droppedJobsTotal 5580
scalar FogSequentialForward.fog[36].dispatcher localJobs 9086
scalar FogSequentialForward.fog[36].dispatcher internalJobs 9117
scalar FogSequentialForward.fog[36].dispatcher externalJobs 1052
scalar FogSequentialForward.fog[36].dispatcher remoteJobs 1083
scalar FogSequentialForward.fog[36].dispatcher probeQueries 0
scalar FogSequentialForward.fog[36].dispatcher probeAnswers 0
scalar FogSequentialForward.fog[36].dispatcher droppedJobsSLA 0
scalar FogSequentialForward.fog[36].dispatcher jobs_class_1 10169
scalar FogSequentialForward.fog[36].dispatcher remoteJobs_class_1 1083
scalar FogSequentialForward.fog[36].dispatcher localJobs_class_1 9086
scalar FogSequentialForward.fog[36].server[0] rho 0.99959868192673
scalar FogSequentialForward.fog[36].server[0] congestionRatio 0
scalar FogSequentialForward.fog[36].server[0] totalJobs 9086
scalar FogSequentialForward.fog[36].server[0] droppedJobsQueue 7
scalar FogSequentialForward.fog[36].server[0] droppedJobsTimout 0
scalar FogSequentialForward.fog[36].server[0] droppedJobsSLA 5666
scalar FogSequentialForward.fog[36].server[0] droppedJobsTotal 5673
scalar FogSequentialForward.fog[37].dispatcher localJobs 9048
scalar FogSequentialForward.fog[37].dispatcher internalJobs 9061
scalar FogSequentialForward.fog[37].dispatcher externalJobs 1023
scalar FogSequentialForward.fog[37].dispatcher remoteJobs 1036
scalar FogSequentialForward.fog[37].dispatcher probeQueries 0
scalar FogSequentialForward.fog[37].dispatcher probeAnswers 0
scalar FogSequentialForward.fog[37].dispatcher droppedJobsSLA 0
scalar FogSequentialForward.fog[37].dispatcher jobs_class_1 10084
scalar FogSequentialForward.fog[37].dispatcher remoteJobs_class_1 1036
scalar FogSequentialForward.fog[37].dispatcher localJobs_class_1 9048
scalar FogSequentialForward.fog[37].server[0] rho 0.99985706806183
scalar FogSequentialForward.fog[37].server[0] congestionRatio 0
scalar FogSequentialForward.fog[37].server[0] totalJobs 9048
scalar FogSequentialForward.fog[37].server[0] droppedJobsQueue 11
scalar FogSequentialForward.fog[37].server[0] droppedJobsTimout 0
scalar FogSequentialForward.fog[37].server[0] droppedJobsSLA 5713
scalar FogSequentialForward.fog[37].server[0] droppedJobsTotal 5724
scalar FogSequentialForward.fog[38].dispatcher localJobs 9055
scalar FogSequentialForward.fog[38].dispatcher internalJobs 9039
scalar FogSequentialForward.fog[38].dispatcher externalJobs 1009
scalar FogSequentialForward.fog[38].dispatcher remoteJobs 993
scalar FogSequentialForward.fog[38].dispatcher probeQueries 0
scalar FogSequentialForward.fog[38].dispatcher probeAnswers 0
scalar FogSequentialForward.fog[38].dispatcher droppedJobsSLA 0
scalar FogSequentialForward.fog[38].dispatcher jobs_class_1 10048
scalar FogSequentialForward.fog[38].dispatcher remoteJobs_class_1 993
scalar FogSequentialForward.fog[38].dispatcher localJobs_class_1 9055
scalar FogSequentialForward.fog[38].server[0] rho 0.99922090768814
scalar FogSequentialForward.fog[38].server[0] congestionRatio 0
scalar FogSequentialForward.fog[38].server[0] totalJobs 9055
scalar FogSequentialForward.fog[38].server[0] droppedJobsQueue 7
scalar FogSequentialForward.fog[38].server[0] droppedJobsTimout 0
scalar FogSequentialForward.fog[38].server[0] droppedJobsSLA 5703
scalar FogSequentialForward.fog[38].server[0] droppedJobsTotal 5710
scalar FogSequentialForward.fog[39].dispatcher localJobs 9149
scalar FogSequentialForward.fog[39].dispatcher internalJobs 9165
scalar FogSequentialForward.fog[39].dispatcher externalJobs 967
scalar FogSequentialForward.fog[39].dispatcher remoteJobs 983
scalar FogSequentialForward.fog[39].dispatcher probeQueries 0
scalar FogSequentialForward.fog[39].dispatcher probeAnswers 0
scalar FogSequentialForward.fog[39].dispatcher droppedJobsSLA 0
scalar FogSequentialForward.fog[39].dispatcher jobs_class_1 10132
scalar FogSequentialForward.fog[39].dispatcher remoteJobs_class_1 983
scalar FogSequentialForward.fog[39].dispatcher localJobs_class_1 9149
scalar FogSequentialForward.fog[39].server[0] rho 1
scalar FogSequentialForward.fog[39].server[0] congestionRatio 0
scalar FogSequentialForward.fog[39].server[0] totalJobs 9149
scalar FogSequentialForward.fog[39].server[0] droppedJobsQueue 11
scalar FogSequentialForward.fog[39].server[0] droppedJobsTimout 0
scalar FogSequentialForward.fog[39].server[0] droppedJobsSLA 5916
scalar FogSequentialForward.fog[39].server[0] droppedJobsTotal 5927
scalar FogSequentialForward.fog[40].dispatcher localJobs 9031
scalar FogSequentialForward.fog[40].dispatcher internalJobs 9079
scalar FogSequentialForward.fog[40].dispatcher externalJobs 984
scalar FogSequentialForward.fog[40].dispatcher remoteJobs 1032
scalar FogSequentialForward.fog[40].dispatcher probeQueries 0
scalar FogSequentialForward.fog[40].dispatcher probeAnswers 0
scalar FogSequentialForward.fog[40].dispatcher droppedJobsSLA 0
scalar FogSequentialForward.fog[40].dispatcher jobs_class_1 10063
scalar FogSequentialForward.fog[40].dispatcher remoteJobs_class_1 1032
scalar FogSequentialForward.fog[40].dispatcher localJobs_class_1 9031
scalar FogSequentialForward.fog[40].server[0] rho 0.99999451637268
scalar FogSequentialForward.fog[40].server[0] congestionRatio 0
scalar FogSequentialForward.fog[40].server[0] totalJobs 9031
scalar FogSequentialForward.fog[40].server[0] droppedJobsQueue 8
scalar FogSequentialForward.fog[40].server[0] droppedJobsTimout 0
scalar FogSequentialForward.fog[40].server[0] droppedJobsSLA 5726
scalar FogSequentialForward.fog[40].server[0] droppedJobsTotal 5734
scalar FogSequentialForward.fog[41].dispatcher localJobs 8981
scalar FogSequentialForward.fog[41].dispatcher internalJobs 8887
scalar FogSequentialForward.fog[41].dispatcher externalJobs 1005
scalar FogSequentialForward.fog[41].dispatcher remoteJobs 911
scalar FogSequentialForward.fog[41].dispatcher probeQueries 0
scalar FogSequentialForward.fog[41].dispatcher probeAnswers 0
scalar FogSequentialForward.fog[41].dispatcher droppedJobsSLA 0
scalar FogSequentialForward.fog[41].dispatcher jobs_class_1 9892
scalar FogSequentialForward.fog[41].dispatcher remoteJobs_class_1 911
scalar FogSequentialForward.fog[41].dispatcher localJobs_class_1 8981
scalar FogSequentialForward.fog[41].server[0] rho 1
scalar FogSequentialForward.fog[41].server[0] congestionRatio 0
scalar FogSequentialForward.fog[41].server[0] totalJobs 8981
scalar FogSequentialForward.fog[41].server[0] droppedJobsQueue 4
scalar FogSequentialForward.fog[41].server[0] droppedJobsTimout 0
scalar FogSequentialForward.fog[41].server[0] droppedJobsSLA 5672
scalar FogSequentialForward.fog[41].server[0] droppedJobsTotal 5676
scalar FogSequentialForward.fog[42].dispatcher localJobs 8950
scalar FogSequentialForward.fog[42].dispatcher internalJobs 8885
scalar FogSequentialForward.fog[42].dispatcher externalJobs 1054
scalar FogSequentialForward.fog[42].dispatcher remoteJobs 989
scalar FogSequentialForward.fog[42].dispatcher probeQueries 0
scalar FogSequentialForward.fog[42].dispatcher probeAnswers 0
scalar FogSequentialForward.fog[42].dispatcher droppedJobsSLA 0
scalar FogSequentialForward.fog[42].dispatcher jobs_class_1 9939
scalar FogSequentialForward.fog[42].dispatcher remoteJobs_class_1 989
scalar FogSequentialForward.fog[42].dispatcher localJobs_class_1 8950
scalar FogSequentialForward.fog[42].server[0] rho 1
scalar FogSequentialForward.fog[42].server[0] congestionRatio 0
scalar FogSequentialForward.fog[42].server[0] totalJobs 8950
scalar FogSequentialForward.fog[42].server[0] droppedJobsQueue 6
scalar FogSequentialForward.fog[42].server[0] droppedJobsTimout 0
scalar FogSequentialForward.fog[42].server[0] droppedJobsSLA 5542
scalar FogSequentialForward.fog[42].server[0] droppedJobsTotal 5548
scalar FogSequentialForward.fog[43].dispatcher localJobs 9003
scalar FogSequentialForward.fog[43].dispatcher internalJobs 8992
scalar FogSequentialForward.fog[43].dispatcher externalJobs 968
scalar FogSequentialForward.fog[43].dispatcher remoteJobs 957
scalar FogSequentialForward.fog[43].dispatcher probeQueries 0
scalar FogSequentialForward.fog[43].dispatcher probeAnswers 0
scalar FogSequentialForward.fog[43].dispatcher droppedJobsSLA 0
scalar FogSequentialForward.fog[43].dispatcher jobs_class_1 9960
scalar FogSequentialForward.fog[43].dispatcher remoteJobs_class_1 957
scalar FogSequentialForward.fog[43].dispatcher localJobs_class_1 9003
scalar FogSequentialForward.fog[43].server[0] rho 1
scalar FogSequentialForward.fog[43].server[0] congestionRatio 0
scalar FogSequentialForward.fog[43].server[0] totalJobs 9003
scalar FogSequentialForward.fog[43].server[0] droppedJobsQueue 5
scalar FogSequentialForward.fog[43].server[0] droppedJobsTimout 0
scalar FogSequentialForward.fog[43].server[0] droppedJobsSLA 5612
scalar FogSequentialForward.fog[43].server[0] droppedJobsTotal 5617
scalar FogSequentialForward.fog[44].dispatcher localJobs 9074
scalar FogSequentialForward.fog[44].dispatcher internalJobs 9099
scalar FogSequentialForward.fog[44].dispatcher externalJobs 964
scalar FogSequentialForward.fog[44].dispatcher remoteJobs 989
scalar FogSequentialForward.fog[44].dispatcher probeQueries 0
scalar FogSequentialForward.fog[44].dispatcher probeAnswers 0
scalar FogSequentialForward.fog[44].dispatcher droppedJobsSLA 0
scalar FogSequentialForward.fog[44].dispatcher jobs_class_1 10063
scalar FogSequentialForward.fog[44].dispatcher remoteJobs_class_1 989
scalar FogSequentialForward.fog[44].dispatcher localJobs_class_1 9074
scalar FogSequentialForward.fog[44].server[0] rho 1
scalar FogSequentialForward.fog[44].server[0] congestionRatio 0
scalar FogSequentialForward.fog[44].server[0] totalJobs 9074
scalar FogSequentialForward.fog[44].server[0] droppedJobsQueue 4
scalar FogSequentialForward.fog[44].server[0] droppedJobsTimout 0
scalar FogSequentialForward.fog[44].server[0] droppedJobsSLA 5804
scalar FogSequentialForward.fog[44].server[0] droppedJobsTotal 5808
scalar FogSequentialForward.fog[45].dispatcher localJobs 9077
scalar FogSequentialForward.fog[45].dispatcher internalJobs 9080
scalar FogSequentialForward.fog[45].dispatcher externalJobs 1007
scalar FogSequentialForward.fog[45].dispatcher remoteJobs 1010
scalar FogSequentialForward.fog[45].dispatcher probeQueries 0
scalar FogSequentialForward.fog[45].dispatcher probeAnswers 0
scalar FogSequentialForward.fog[45].dispatcher droppedJobsSLA 0
scalar FogSequentialForward.fog[45].dispatcher jobs_class_1 10087
scalar FogSequentialForward.fog[45].dispatcher remoteJobs_class_1 1010
scalar FogSequentialForward.fog[45].dispatcher localJobs_class_1 9077
scalar FogSequentialForward.fog[45].server[0] rho 0.99987250566483
scalar FogSequentialForward.fog[45].server[0] congestionRatio 0
scalar FogSequentialForward.fog[45].server[0] totalJobs 9077
scalar FogSequentialForward.fog[45].server[0] droppedJobsQueue 7
scalar FogSequentialForward.fog[45].server[0] droppedJobsTimout 0
scalar FogSequentialForward.fog[45].server[0] droppedJobsSLA 5767
scalar FogSequentialForward.fog[45].server[0] droppedJobsTotal 5774
scalar FogSequentialForward.fog[46].dispatcher localJobs 9094
scalar FogSequentialForward.fog[46].dispatcher internalJobs 9077
scalar FogSequentialForward.fog[46].dispatcher externalJobs 1004
scalar FogSequentialForward.fog[46].dispatcher remoteJobs 987
scalar FogSequentialForward.fog[46].dispatcher probeQueries 0
scalar FogSequentialForward.fog[46].dispatcher probeAnswers 0
scalar FogSequentialForward.fog[46].dispatcher droppedJobsSLA 0
scalar FogSequentialForward.fog[46].dispatcher jobs_class_1 10081
scalar FogSequentialForward.fog[46].dispatcher remoteJobs_class_1 987
scalar FogSequentialForward.fog[46].dispatcher localJobs_class_1 9094
scalar FogSequentialForward.fog[46].server[0] rho 1
scalar FogSequentialForward.fog[46].server[0] congestionRatio 0
scalar FogSequentialForward.fog[46].server[0] totalJobs 9094
scalar FogSequentialForward.fog[46].server[0] droppedJobsQueue 6
scalar FogSequentialForward.fog[46].server[0] droppedJobsTimout 0
scalar FogSequentialForward.fog[46].server[0] droppedJobsSLA 5813
scalar FogSequentialForward.fog[46].server[0] droppedJobsTotal 5819
scalar FogSequentialForward.fog[47].dispatcher localJobs 9092
scalar FogSequentialForward.fog[47].dispatcher internalJobs 9104
scalar FogSequentialForward.fog[47].dispatcher externalJobs 987
scalar FogSequentialForward.fog[47].dispatcher remoteJobs 999
scalar FogSequentialForward.fog[47].dispatcher probeQueries 0
scalar FogSequentialForward.fog[47].dispatcher probeAnswers 0
scalar FogSequentialForward.fog[47].dispatcher droppedJobsSLA 0
scalar FogSequentialForward.fog[47].dispatcher jobs_class_1 10091
scalar FogSequentialForward.fog[47].dispatcher remoteJobs_class_1 999
scalar FogSequentialForward.fog[47].dispatcher localJobs_class_1 9092
scalar FogSequentialForward.fog[47].server[0] rho 1
scalar FogSequentialForward.fog[47].server[0] congestionRatio 0
scalar FogSequentialForward.fog[47].server[0] totalJobs 9092
scalar FogSequentialForward.fog[47].server[0] droppedJobsQueue 7
scalar FogSequentialForward.fog[47].server[0] droppedJobsTimout 0
scalar FogSequentialForward.fog[47].server[0] droppedJobsSLA 5893
scalar FogSequentialForward.fog[47].server[0] droppedJobsTotal 5900
scalar FogSequentialForward.fog[48].dispatcher localJobs 8992
scalar FogSequentialForward.fog[48].dispatcher internalJobs 8954
scalar FogSequentialForward.fog[48].dispatcher externalJobs 1034
scalar FogSequentialForward.fog[48].dispatcher remoteJobs 996
scalar FogSequentialForward.fog[48].dispatcher probeQueries 0
scalar FogSequentialForward.fog[48].dispatcher probeAnswers 0
scalar FogSequentialForward.fog[48].dispatcher droppedJobsSLA 0
scalar FogSequentialForward.fog[48].dispatcher jobs_class_1 9988
scalar FogSequentialForward.fog[48].dispatcher remoteJobs_class_1 996
scalar FogSequentialForward.fog[48].dispatcher localJobs_class_1 8992
scalar FogSequentialForward.fog[48].server[0] rho 0.99989378452301
scalar FogSequentialForward.fog[48].server[0] congestionRatio 0
scalar FogSequentialForward.fog[48].server[0] totalJobs 8992
scalar FogSequentialForward.fog[48].server[0] droppedJobsQueue 5
scalar FogSequentialForward.fog[48].server[0] droppedJobsTimout 0
scalar FogSequentialForward.fog[48].server[0] droppedJobsSLA 5531
scalar FogSequentialForward.fog[48].server[0] droppedJobsTotal 5536
scalar FogSequentialForward.fog[49].dispatcher localJobs 8986
scalar FogSequentialForward.fog[49].dispatcher internalJobs 8950
scalar FogSequentialForward.fog[49].dispatcher externalJobs 1023
scalar FogSequentialForward.fog[49].dispatcher remoteJobs 987
scalar FogSequentialForward.fog[49].dispatcher probeQueries 0
scalar FogSequentialForward.fog[49].dispatcher probeAnswers 0
scalar FogSequentialForward.fog[49].dispatcher droppedJobsSLA 0
scalar FogSequentialForward.fog[49].dispatcher jobs_class_1 9973
scalar FogSequentialForward.fog[49].dispatcher remoteJobs_class_1 987
scalar FogSequentialForward.fog[49].dispatcher localJobs_class_1 8986
scalar FogSequentialForward.fog[49].server[0] rho 0.99982595443726
scalar FogSequentialForward.fog[49].server[0] congestionRatio 0
scalar FogSequentialForward.fog[49].server[0] totalJobs 8986
scalar FogSequentialForward.fog[49].server[0] droppedJobsQueue 4
scalar FogSequentialForward.fog[49].server[0] droppedJobsTimout 0
scalar FogSequentialForward.fog[49].server[0] droppedJobsSLA 5577
scalar FogSequentialForward.fog[49].server[0] droppedJobsTotal 5581
scalar FogSequentialForward.fog[50].dispatcher localJobs 9081
scalar FogSequentialForward.fog[50].dispatcher internalJobs 9130
scalar FogSequentialForward.fog[50].dispatcher externalJobs 1026
scalar FogSequentialForward.fog[50].dispatcher remoteJobs 1075
scalar FogSequentialForward.fog[50].dispatcher probeQueries 0
scalar FogSequentialForward.fog[50].dispatcher probeAnswers 0
scalar FogSequentialForward.fog[50].dispatcher droppedJobsSLA 0
scalar FogSequentialForward.fog[50].dispatcher jobs_class_1 10156
scalar FogSequentialForward.fog[50].dispatcher remoteJobs_class_1 1075
scalar FogSequentialForward.fog[50].dispatcher localJobs_class_1 9081
scalar FogSequentialForward.fog[50].server[0] rho 0.99961417913437
scalar FogSequentialForward.fog[50].server[0] congestionRatio 0
scalar FogSequentialForward.fog[50].server[0] totalJobs 9081
scalar FogSequentialForward.fog[50].server[0] droppedJobsQueue 4
scalar FogSequentialForward.fog[50].server[0] droppedJobsTimout 0
scalar FogSequentialForward.fog[50].server[0] droppedJobsSLA 5828
scalar FogSequentialForward.fog[50].server[0] droppedJobsTotal 5832
scalar FogSequentialForward.fog[51].dispatcher localJobs 9063
scalar FogSequentialForward.fog[51].dispatcher internalJobs 9172
scalar FogSequentialForward.fog[51].dispatcher externalJobs 923
scalar FogSequentialForward.fog[51].dispatcher remoteJobs 1032
scalar FogSequentialForward.fog[51].dispatcher probeQueries 0
scalar FogSequentialForward.fog[51].dispatcher probeAnswers 0
scalar FogSequentialForward.fog[51].dispatcher droppedJobsSLA 0
scalar FogSequentialForward.fog[51].dispatcher jobs_class_1 10095
scalar FogSequentialForward.fog[51].dispatcher remoteJobs_class_1 1032
scalar FogSequentialForward.fog[51].dispatcher localJobs_class_1 9063
scalar FogSequentialForward.fog[51].server[0] rho 1
scalar FogSequentialForward.fog[51].server[0] congestionRatio 0
scalar FogSequentialForward.fog[51].server[0] totalJobs 9063
scalar FogSequentialForward.fog[51].server[0] droppedJobsQueue 7
scalar FogSequentialForward.fog[51].server[0] droppedJobsTimout 0
scalar FogSequentialForward.fog[51].server[0] droppedJobsSLA 5732
scalar FogSequentialForward.fog[51].server[0] droppedJobsTotal 5739
scalar FogSequentialForward.fog[52].dispatcher localJobs 9036
scalar FogSequentialForward.fog[52].dispatcher internalJobs 9046
scalar FogSequentialForward.fog[52].dispatcher externalJobs 998
scalar FogSequentialForward.fog[52].dispatcher remoteJobs 1008
scalar FogSequentialForward.fog[52].dispatcher probeQueries 0
scalar FogSequentialForward.fog[52].dispatcher probeAnswers 0
scalar FogSequentialForward.fog[52].dispatcher droppedJobsSLA 0
scalar FogSequentialForward.fog[52].dispatcher jobs_class_1 10044
scalar FogSequentialForward.fog[52].dispatcher remoteJobs_class_1 1008
scalar FogSequentialForward.fog[52].dispatcher localJobs_class_1 9036
scalar FogSequentialForward.fog[52].server[0] rho 1
scalar FogSequentialForward.fog[52].server[0] congestionRatio 0
scalar FogSequentialForward.fog[52].server[0] totalJobs 9036
scalar FogSequentialForward.fog[52].server[0] droppedJobsQueue 4
scalar FogSequentialForward.fog[52].server[0] droppedJobsTimout 0
scalar FogSequentialForward.fog[52].server[0] droppedJobsSLA 5693
scalar FogSequentialForward.fog[52].server[0] droppedJobsTotal 5697
scalar FogSequentialForward.fog[53].dispatcher localJobs 9110
scalar FogSequentialForward.fog[53].dispatcher internalJobs 9252
scalar FogSequentialForward.fog[53].dispatcher externalJobs 984
scalar FogSequentialForward.fog[53].dispatcher remoteJobs 1126
scalar FogSequentialForward.fog[53].dispatcher probeQueries 0
scalar FogSequentialForward.fog[53].dispatcher probeAnswers 0
scalar FogSequentialForward.fog[53].dispatcher droppedJobsSLA 0
scalar FogSequentialForward.fog[53].dispatcher jobs_class_1 10236
scalar FogSequentialForward.fog[53].dispatcher remoteJobs_class_1 1126
scalar FogSequentialForward.fog[53].dispatcher localJobs_class_1 9110
scalar FogSequentialForward.fog[53].server[0] rho 0.99980425834656
scalar FogSequentialForward.fog[53].server[0] congestionRatio 0
scalar FogSequentialForward.fog[53].server[0] totalJobs 9110
scalar FogSequentialForward.fog[53].server[0] droppedJobsQueue 8
scalar FogSequentialForward.fog[53].server[0] droppedJobsTimout 0
scalar FogSequentialForward.fog[53].server[0] droppedJobsSLA 5779
scalar FogSequentialForward.fog[53].server[0] droppedJobsTotal 5787
scalar FogSequentialForward.fog[54].dispatcher localJobs 9058
scalar FogSequentialForward.fog[54].dispatcher internalJobs 9055
scalar FogSequentialForward.fog[54].dispatcher externalJobs 1048
scalar FogSequentialForward.fog[54].dispatcher remoteJobs 1045
scalar FogSequentialForward.fog[54].dispatcher probeQueries 0
scalar FogSequentialForward.fog[54].dispatcher probeAnswers 0
scalar FogSequentialForward.fog[54].dispatcher droppedJobsSLA 0
scalar FogSequentialForward.fog[54].dispatcher jobs_class_1 10103
scalar FogSequentialForward.fog[54].dispatcher remoteJobs_class_1 1045
scalar FogSequentialForward.fog[54].dispatcher localJobs_class_1 9058
scalar FogSequentialForward.fog[54].server[0] rho 1
scalar FogSequentialForward.fog[54].server[0] congestionRatio 0
scalar FogSequentialForward.fog[54].server[0] totalJobs 9058
scalar FogSequentialForward.fog[54].server[0] droppedJobsQueue 6
scalar FogSequentialForward.fog[54].server[0] droppedJobsTimout 0
scalar FogSequentialForward.fog[54].server[0] droppedJobsSLA 5772
scalar FogSequentialForward.fog[54].server[0] droppedJobsTotal 5778
scalar FogSequentialForward.fog[55].dispatcher localJobs 8938
scalar FogSequentialForward.fog[55].dispatcher internalJobs 8890
scalar FogSequentialForward.fog[55].dispatcher externalJobs 947
scalar FogSequentialForward.fog[55].dispatcher remoteJobs 899
scalar FogSequentialForward.fog[55].dispatcher probeQueries 0
scalar FogSequentialForward.fog[55].dispatcher probeAnswers 0
scalar FogSequentialForward.fog[55].dispatcher droppedJobsSLA 0
scalar FogSequentialForward.fog[55].dispatcher jobs_class_1 9837
scalar FogSequentialForward.fog[55].dispatcher remoteJobs_class_1 899
scalar FogSequentialForward.fog[55].dispatcher localJobs_class_1 8938
scalar FogSequentialForward.fog[55].server[0] rho 0.9996845126152
scalar FogSequentialForward.fog[55].server[0] congestionRatio 0
scalar FogSequentialForward.fog[55].server[0] totalJobs 8938
scalar FogSequentialForward.fog[55].server[0] droppedJobsQueue 6
scalar FogSequentialForward.fog[55].server[0] droppedJobsTimout 0
scalar FogSequentialForward.fog[55].server[0] droppedJobsSLA 5628
scalar FogSequentialForward.fog[55].server[0] droppedJobsTotal 5634
scalar FogSequentialForward.fog[56].dispatcher localJobs 9092
scalar FogSequentialForward.fog[56].dispatcher internalJobs 9020
scalar FogSequentialForward.fog[56].dispatcher externalJobs 1070
scalar FogSequentialForward.fog[56].dispatcher remoteJobs 998
scalar FogSequentialForward.fog[56].dispatcher probeQueries 0
scalar FogSequentialForward.fog[56].dispatcher probeAnswers 0
scalar FogSequentialForward.fog[56].dispatcher droppedJobsSLA 0
scalar FogSequentialForward.fog[56].dispatcher jobs_class_1 10090
scalar FogSequentialForward.fog[56].dispatcher remoteJobs_class_1 998
scalar FogSequentialForward.fog[56].dispatcher localJobs_class_1 9092
scalar FogSequentialForward.fog[56].server[0] rho 1
scalar FogSequentialForward.fog[56].server[0] congestionRatio 0
scalar FogSequentialForward.fog[56].server[0] totalJobs 9092
scalar FogSequentialForward.fog[56].server[0] droppedJobsQueue 8
scalar FogSequentialForward.fog[56].server[0] droppedJobsTimout 0
scalar FogSequentialForward.fog[56].server[0] droppedJobsSLA 5768
scalar FogSequentialForward.fog[56].server[0] droppedJobsTotal 5776
scalar FogSequentialForward.fog[57].dispatcher localJobs 9158
scalar FogSequentialForward.fog[57].dispatcher internalJobs 9257
scalar FogSequentialForward.fog[57].dispatcher externalJobs 1018
scalar FogSequentialForward.fog[57].dispatcher remoteJobs 1117
scalar FogSequentialForward.fog[57].dispatcher probeQueries 0
scalar FogSequentialForward.fog[57].dispatcher probeAnswers 0
scalar FogSequentialForward.fog[57].dispatcher droppedJobsSLA 0
scalar FogSequentialForward.fog[57].dispatcher jobs_class_1 10275
scalar FogSequentialForward.fog[57].dispatcher remoteJobs_class_1 1117
scalar FogSequentialForward.fog[57].dispatcher localJobs_class_1 9158
scalar FogSequentialForward.fog[57].server[0] rho 0.99976205825806
scalar FogSequentialForward.fog[57].server[0] congestionRatio 0
scalar FogSequentialForward.fog[57].server[0] totalJobs 9158
scalar FogSequentialForward.fog[57].server[0] droppedJobsQueue 7
scalar FogSequentialForward.fog[57].server[0] droppedJobsTimout 0
scalar FogSequentialForward.fog[57].server[0] droppedJobsSLA 5888
scalar FogSequentialForward.fog[57].server[0] droppedJobsTotal 5895
scalar FogSequentialForward.fog[58].dispatcher localJobs 8974
scalar FogSequentialForward.fog[58].dispatcher internalJobs 8952
scalar FogSequentialForward.fog[58].dispatcher externalJobs 978
scalar FogSequentialForward.fog[58].dispatcher remoteJobs 956
scalar FogSequentialForward.fog[58].dispatcher probeQueries 0
scalar FogSequentialForward.fog[58].dispatcher probeAnswers 0
scalar FogSequentialForward.fog[58].dispatcher droppedJobsSLA 0
scalar FogSequentialForward.fog[58].dispatcher jobs_class_1 9930
scalar FogSequentialForward.fog[58].dispatcher remoteJobs_class_1 956
scalar FogSequentialForward.fog[58].dispatcher localJobs_class_1 8974
scalar FogSequentialForward.fog[58].server[0] rho 0.99940431118011
scalar FogSequentialForward.fog[58].server[0] congestionRatio 0
scalar FogSequentialForward.fog[58].server[0] totalJobs 8974
scalar FogSequentialForward.fog[58].server[0] droppedJobsQueue 4
scalar FogSequentialForward.fog[58].server[0] droppedJobsTimout 0
scalar FogSequentialForward.fog[58].server[0] droppedJobsSLA 5581
scalar FogSequentialForward.fog[58].server[0] droppedJobsTotal 5585
scalar FogSequentialForward.fog[59].dispatcher localJobs 9004
scalar FogSequentialForward.fog[59].dispatcher internalJobs 8932
scalar FogSequentialForward.fog[59].dispatcher externalJobs 1019
scalar FogSequentialForward.fog[59].dispatcher remoteJobs 947
scalar FogSequentialForward.fog[59].dispatcher probeQueries 0
scalar FogSequentialForward.fog[59].dispatcher probeAnswers 0
scalar FogSequentialForward.fog[59].dispatcher droppedJobsSLA 0
scalar FogSequentialForward.fog[59].dispatcher jobs_class_1 9951
scalar FogSequentialForward.fog[59].dispatcher remoteJobs_class_1 947
scalar FogSequentialForward.fog[59].dispatcher localJobs_class_1 9004
scalar FogSequentialForward.fog[59].server[0] rho 1
scalar FogSequentialForward.fog[59].server[0] congestionRatio 0
scalar FogSequentialForward.fog[59].server[0] totalJobs 9004
scalar FogSequentialForward.fog[59].server[0] droppedJobsQueue 5
scalar FogSequentialForward.fog[59].server[0] droppedJobsTimout 0
scalar FogSequentialForward.fog[59].server[0] droppedJobsSLA 5605
scalar FogSequentialForward.fog[59].server[0] droppedJobsTotal 5610
scalar FogSequentialForward.fog[60].dispatcher localJobs 9021
scalar FogSequentialForward.fog[60].dispatcher internalJobs 9022
scalar FogSequentialForward.fog[60].dispatcher externalJobs 955
scalar FogSequentialForward.fog[60].dispatcher remoteJobs 956
scalar FogSequentialForward.fog[60].dispatcher probeQueries 0
scalar FogSequentialForward.fog[60].dispatcher probeAnswers 0
scalar FogSequentialForward.fog[60].dispatcher droppedJobsSLA 0
scalar FogSequentialForward.fog[60].dispatcher jobs_class_1 9977
scalar FogSequentialForward.fog[60].dispatcher remoteJobs_class_1 956
scalar FogSequentialForward.fog[60].dispatcher localJobs_class_1 9021
scalar FogSequentialForward.fog[60].server[0] rho 1
scalar FogSequentialForward.fog[60].server[0] congestionRatio 0
scalar FogSequentialForward.fog[60].server[0] totalJobs 9021
scalar FogSequentialForward.fog[60].server[0] droppedJobsQueue 5
scalar FogSequentialForward.fog[60].server[0] droppedJobsTimout 0
scalar FogSequentialForward.fog[60].server[0] droppedJobsSLA 5730
scalar FogSequentialForward.fog[60].server[0] droppedJobsTotal 5735
scalar FogSequentialForward.fog[61].dispatcher localJobs 9031
scalar FogSequentialForward.fog[61].dispatcher internalJobs 9056
scalar FogSequentialForward.fog[61].dispatcher externalJobs 1013
scalar FogSequentialForward.fog[61].dispatcher remoteJobs 1038
scalar FogSequentialForward.fog[61].dispatcher probeQueries 0
scalar FogSequentialForward.fog[61].dispatcher probeAnswers 0
scalar FogSequentialForward.fog[61].dispatcher droppedJobsSLA 0
scalar FogSequentialForward.fog[61].dispatcher jobs_class_1 10069
scalar FogSequentialForward.fog[61].dispatcher remoteJobs_class_1 1038
scalar FogSequentialForward.fog[61].dispatcher localJobs_class_1 9031
scalar FogSequentialForward.fog[61].server[0] rho 0.99980318546295
scalar FogSequentialForward.fog[61].server[0] congestionRatio 0
scalar FogSequentialForward.fog[61].server[0] totalJobs 9031
scalar FogSequentialForward.fog[61].server[0] droppedJobsQueue 8
scalar FogSequentialForward.fog[61].server[0] droppedJobsTimout 0
scalar FogSequentialForward.fog[61].server[0] droppedJobsSLA 5625
scalar FogSequentialForward.fog[61].server[0] droppedJobsTotal 5633
scalar FogSequentialForward.fog[62].dispatcher localJobs 9058
scalar FogSequentialForward.fog[62].dispatcher internalJobs 9093
scalar FogSequentialForward.fog[62].dispatcher externalJobs 976
scalar FogSequentialForward.fog[62].dispatcher remoteJobs 1011
scalar FogSequentialForward.fog[62].dispatcher probeQueries 0
scalar FogSequentialForward.fog[62].dispatcher probeAnswers 0
scalar FogSequentialForward.fog[62].dispatcher droppedJobsSLA 0
scalar FogSequentialForward.fog[62].dispatcher jobs_class_1 10069
scalar FogSequentialForward.fog[62].dispatcher remoteJobs_class_1 1011
scalar FogSequentialForward.fog[62].dispatcher localJobs_class_1 9058
scalar FogSequentialForward.fog[62].server[0] rho 0.99961805343628
scalar FogSequentialForward.fog[62].server[0] congestionRatio 0
scalar FogSequentialForward.fog[62].server[0] totalJobs 9058
scalar FogSequentialForward.fog[62].server[0] droppedJobsQueue 4
scalar FogSequentialForward.fog[62].server[0] droppedJobsTimout 0
scalar FogSequentialForward.fog[62].server[0] droppedJobsSLA 5671
scalar FogSequentialForward.fog[62].server[0] droppedJobsTotal 5675
scalar FogSequentialForward.fog[63].dispatcher localJobs 9087
scalar FogSequentialForward.fog[63].dispatcher internalJobs 9099
scalar FogSequentialForward.fog[63].dispatcher externalJobs 999
scalar FogSequentialForward.fog[63].dispatcher remoteJobs 1011
scalar FogSequentialForward.fog[63].dispatcher probeQueries 0
scalar FogSequentialForward.fog[63].dispatcher probeAnswers 0
scalar FogSequentialForward.fog[63].dispatcher droppedJobsSLA 0
scalar FogSequentialForward.fog[63].dispatcher jobs_class_1 10098
scalar FogSequentialForward.fog[63].dispatcher remoteJobs_class_1 1011
scalar FogSequentialForward.fog[63].dispatcher localJobs_class_1 9087
scalar FogSequentialForward.fog[63].server[0] rho 0.99991816282272
scalar FogSequentialForward.fog[63].server[0] congestionRatio 0
scalar FogSequentialForward.fog[63].server[0] totalJobs 9087
scalar FogSequentialForward.fog[63].server[0] droppedJobsQueue 8
scalar FogSequentialForward.fog[63].server[0] droppedJobsTimout 0
scalar FogSequentialForward.fog[63].server[0] droppedJobsSLA 5812
scalar FogSequentialForward.fog[63].server[0] droppedJobsTotal 5820
scalar FogSequentialForward.fog[64].dispatcher localJobs 8929
scalar FogSequentialForward.fog[64].dispatcher internalJobs 8856
scalar FogSequentialForward.fog[64].dispatcher externalJobs 974
scalar FogSequentialForward.fog[64].dispatcher remoteJobs 901
scalar FogSequentialForward.fog[64].dispatcher probeQueries 0
scalar FogSequentialForward.fog[64].dispatcher probeAnswers 0
scalar FogSequentialForward.fog[64].dispatcher droppedJobsSLA 0
scalar FogSequentialForward.fog[64].dispatcher jobs_class_1 9830
scalar FogSequentialForward.fog[64].dispatcher remoteJobs_class_1 901
scalar FogSequentialForward.fog[64].dispatcher localJobs_class_1 8929
scalar FogSequentialForward.fog[64].server[0] rho 1
scalar FogSequentialForward.fog[64].server[0] congestionRatio 0
scalar FogSequentialForward.fog[64].server[0] totalJobs 8929
scalar FogSequentialForward.fog[64].server[0] droppedJobsQueue 9
scalar FogSequentialForward.fog[64].server[0] droppedJobsTimout 0
scalar FogSequentialForward.fog[64].server[0] droppedJobsSLA 5469
scalar FogSequentialForward.fog[64].server[0] droppedJobsTotal 5478
scalar FogSequentialForward.fog[65].dispatcher localJobs 8968
scalar FogSequentialForward.fog[65].dispatcher internalJobs 8934
scalar FogSequentialForward.fog[65].dispatcher externalJobs 987
scalar FogSequentialForward.fog[65].dispatcher remoteJobs 953
scalar FogSequentialForward.fog[65].dispatcher probeQueries 0
scalar FogSequentialForward.fog[65].dispatcher probeAnswers 0
scalar FogSequentialForward.fog[65].dispatcher droppedJobsSLA 0
scalar FogSequentialForward.fog[65].dispatcher jobs_class_1 9921
scalar FogSequentialForward.fog[65].dispatcher remoteJobs_class_1 953
scalar FogSequentialForward.fog[65].dispatcher localJobs_class_1 8968
scalar FogSequentialForward.fog[65].server[0] rho 0.99845308065414
scalar FogSequentialForward.fog[65].server[0] congestionRatio 0
scalar FogSequentialForward.fog[65].server[0] totalJobs 8968
scalar FogSequentialForward.fog[65].server[0] droppedJobsQueue 6
scalar FogSequentialForward.fog[65].server[0] droppedJobsTimout 0
scalar FogSequentialForward.fog[65].server[0] droppedJobsSLA 5539
scalar FogSequentialForward.fog[65].server[0] droppedJobsTotal 5545
scalar FogSequentialForward.fog[66].dispatcher localJobs 8976
scalar FogSequentialForward.fog[66].dispatcher internalJobs 8990
scalar FogSequentialForward.fog[66].dispatcher externalJobs 1009
scalar FogSequentialForward.fog[66].dispatcher remoteJobs 1023
scalar FogSequentialForward.fog[66].dispatcher probeQueries 0
scalar FogSequentialForward.fog[66].dispatcher probeAnswers 0
scalar FogSequentialForward.fog[66].dispatcher droppedJobsSLA 0
scalar FogSequentialForward.fog[66].dispatcher jobs_class_1 9999
scalar FogSequentialForward.fog[66].dispatcher remoteJobs_class_1 1023
scalar FogSequentialForward.fog[66].dispatcher localJobs_class_1 8976
scalar FogSequentialForward.fog[66].server[0] rho 0.99972170591354
scalar FogSequentialForward.fog[66].server[0] congestionRatio 0
scalar FogSequentialForward.fog[66].server[0] totalJobs 8976
scalar FogSequentialForward.fog[66].server[0] droppedJobsQueue 3
scalar FogSequentialForward.fog[66].server[0] droppedJobsTimout 0
scalar FogSequentialForward.fog[66].server[0] droppedJobsSLA 5514
scalar FogSequentialForward.fog[66].server[0] droppedJobsTotal 5517
scalar FogSequentialForward.fog[67].dispatcher localJobs 9068
scalar FogSequentialForward.fog[67].dispatcher internalJobs 9087
scalar FogSequentialForward.fog[67].dispatcher externalJobs 1025
scalar FogSequentialForward.fog[67].dispatcher remoteJobs 1044
scalar FogSequentialForward.fog[67].dispatcher probeQueries 0
scalar FogSequentialForward.fog[67].dispatcher probeAnswers 0
scalar FogSequentialForward.fog[67].dispatcher droppedJobsSLA 0
scalar FogSequentialForward.fog[67].dispatcher jobs_class_1 10112
scalar FogSequentialForward.fog[67].dispatcher remoteJobs_class_1 1044
scalar FogSequentialForward.fog[67].dispatcher localJobs_class_1 9068
scalar FogSequentialForward.fog[67].server[0] rho 1
scalar FogSequentialForward.fog[67].server[0] congestionRatio 0
scalar FogSequentialForward.fog[67].server[0] totalJobs 9068
scalar FogSequentialForward.fog[67].server[0] droppedJobsQueue 5
scalar FogSequentialForward.fog[67].server[0] droppedJobsTimout 0
scalar FogSequentialForward.fog[67].server[0] droppedJobsSLA 5822
scalar FogSequentialForward.fog[67].server[0] droppedJobsTotal 5827
scalar FogSequentialForward.fog[68].dispatcher localJobs 9036
scalar FogSequentialForward.fog[68].dispatcher internalJobs 8974
scalar FogSequentialForward.fog[68].dispatcher externalJobs 1015
scalar FogSequentialForward.fog[68].dispatcher remoteJobs 953
scalar FogSequentialForward.fog[68].dispatcher probeQueries 0
scalar FogSequentialForward.fog[68].dispatcher probeAnswers 0
scalar FogSequentialForward.fog[68].dispatcher droppedJobsSLA 0
scalar FogSequentialForward.fog[68].dispatcher jobs_class_1 9989
scalar FogSequentialForward.fog[68].dispatcher remoteJobs_class_1 953
scalar FogSequentialForward.fog[68].dispatcher localJobs_class_1 9036
scalar FogSequentialForward.fog[68].server[0] rho 0.99986737966537
scalar FogSequentialForward.fog[68].server[0] congestionRatio 0
scalar FogSequentialForward.fog[68].server[0] totalJobs 9036
scalar FogSequentialForward.fog[68].server[0] droppedJobsQueue 7
scalar FogSequentialForward.fog[68].server[0] droppedJobsTimout 0
scalar FogSequentialForward.fog[68].server[0] droppedJobsSLA 5612
scalar FogSequentialForward.fog[68].server[0] droppedJobsTotal 5619
scalar FogSequentialForward.fog[69].dispatcher localJobs 8997
scalar FogSequentialForward.fog[69].dispatcher internalJobs 8965
scalar FogSequentialForward.fog[69].dispatcher externalJobs 1032
scalar FogSequentialForward.fog[69].dispatcher remoteJobs 1000
scalar FogSequentialForward.fog[69].dispatcher probeQueries 0
scalar FogSequentialForward.fog[69].dispatcher probeAnswers 0
scalar FogSequentialForward.fog[69].dispatcher droppedJobsSLA 0
scalar FogSequentialForward.fog[69].dispatcher jobs_class_1 9997
scalar FogSequentialForward.fog[69].dispatcher remoteJobs_class_1 1000
scalar FogSequentialForward.fog[69].dispatcher localJobs_class_1 8997
scalar FogSequentialForward.fog[69].server[0] rho 1
scalar FogSequentialForward.fog[69].server[0] congestionRatio 0
scalar FogSequentialForward.fog[69].server[0] totalJobs 8997
scalar FogSequentialForward.fog[69].server[0] droppedJobsQueue 9
scalar FogSequentialForward.fog[69].server[0] droppedJobsTimout 0
scalar FogSequentialForward.fog[69].server[0] droppedJobsSLA 5613
scalar FogSequentialForward.fog[69].server[0] droppedJobsTotal 5622
scalar FogSequentialForward.fog[70].dispatcher localJobs 9039
scalar FogSequentialForward.fog[70].dispatcher internalJobs 9079
scalar FogSequentialForward.fog[70].dispatcher externalJobs 975
scalar FogSequentialForward.fog[70].dispatcher remoteJobs 1015
scalar FogSequentialForward.fog[70].dispatcher probeQueries 0
scalar FogSequentialForward.fog[70].dispatcher probeAnswers 0
scalar FogSequentialForward.fog[70].dispatcher droppedJobsSLA 0
scalar FogSequentialForward.fog[70].dispatcher jobs_class_1 10054
scalar FogSequentialForward.fog[70].dispatcher remoteJobs_class_1 1015
scalar FogSequentialForward.fog[70].dispatcher localJobs_class_1 9039
scalar FogSequentialForward.fog[70].server[0] rho 0.99999403953552
scalar FogSequentialForward.fog[70].server[0] congestionRatio 0
scalar FogSequentialForward.fog[70].server[0] totalJobs 9039
scalar FogSequentialForward.fog[70].server[0] droppedJobsQueue 4
scalar FogSequentialForward.fog[70].server[0] droppedJobsTimout 0
scalar FogSequentialForward.fog[70].server[0] droppedJobsSLA 5683
scalar FogSequentialForward.fog[70].server[0] droppedJobsTotal 5687
scalar FogSequentialForward.fog[71].dispatcher localJobs 9049
scalar FogSequentialForward.fog[71].dispatcher internalJobs 9034
scalar FogSequentialForward.fog[71].dispatcher externalJobs 1016
scalar FogSequentialForward.fog[71].dispatcher remoteJobs 1001
scalar FogSequentialForward.fog[71].dispatcher probeQueries 0
scalar FogSequentialForward.fog[71].dispatcher probeAnswers 0
scalar FogSequentialForward.fog[71].dispatcher droppedJobsSLA 0
scalar FogSequentialForward.fog[71].dispatcher jobs_class_1 10050
scalar FogSequentialForward.fog[71].dispatcher remoteJobs_class_1 1001
scalar FogSequentialForward.fog[71].dispatcher localJobs_class_1 9049
scalar FogSequentialForward.fog[71].server[0] rho 0.99969178438187
scalar FogSequentialForward.fog[71].server[0] congestionRatio 0
scalar FogSequentialForward.fog[71].server[0] totalJobs 9049
[...]
scalar FogSequentialForward.fog[82].server[0] droppedJobsQueue 8
scalar FogSequentialForward.fog[82].server[0] droppedJobsTimout 0
scalar FogSequentialForward.fog[82].server[0] droppedJobsSLA 5805
scalar FogSequentialForward.fog[82].server[0] droppedJobsTotal 5813
scalar FogSequentialForward.fog[83].dispatcher localJobs 9135
scalar FogSequentialForward.fog[83].dispatcher internalJobs 9145
scalar FogSequentialForward.fog[83].dispatcher externalJobs 1058
scalar FogSequentialForward.fog[83].dispatcher remoteJobs 1068
scalar FogSequentialForward.fog[83].dispatcher probeQueries 0
scalar FogSequentialForward.fog[83].dispatcher probeAnswers 0
scalar FogSequentialForward.fog[83].dispatcher droppedJobsSLA 0
scalar FogSequentialForward.fog[83].dispatcher jobs_class_1 10203
scalar FogSequentialForward.fog[83].dispatcher remoteJobs_class_1 1068
scalar FogSequentialForward.fog[83].dispatcher localJobs_class_1 9135
scalar FogSequentialForward.fog[83].server[0] rho 1
scalar FogSequentialForward.fog[83].server[0] congestionRatio 0
scalar FogSequentialForward.fog[83].server[0] totalJobs 9135
scalar FogSequentialForward.fog[83].server[0] droppedJobsQueue 5
scalar FogSequentialForward.fog[83].server[0] droppedJobsTimout 0
scalar FogSequentialForward.fog[83].server[0] droppedJobsSLA 5862
scalar FogSequentialForward.fog[83].server[0] droppedJobsTotal 5867
scalar FogSequentialForward.fog[84].dispatcher localJobs 9100
scalar FogSequentialForward.fog[84].dispatcher internalJobs 9174
scalar FogSequentialForward.fog[84].dispatcher externalJobs 1009
scalar FogSequentialForward.fog[84].dispatcher remoteJobs 1083
scalar FogSequentialForward.fog[84].dispatcher probeQueries 0
scalar FogSequentialForward.fog[84].dispatcher probeAnswers 0
scalar FogSequentialForward.fog[84].dispatcher droppedJobsSLA 0
scalar FogSequentialForward.fog[84].dispatcher jobs_class_1 10183
scalar FogSequentialForward.fog[84].dispatcher remoteJobs_class_1 1083
scalar FogSequentialForward.fog[84].dispatcher localJobs_class_1 9100
scalar FogSequentialForward.fog[84].server[0] rho 1
scalar FogSequentialForward.fog[84].server[0] congestionRatio 0
scalar FogSequentialForward.fog[84].server[0] totalJobs 9100
scalar FogSequentialForward.fog[84].server[0] droppedJobsQueue 6
scalar FogSequentialForward.fog[84].server[0] droppedJobsTimout 0
scalar FogSequentialForward.fog[84].server[0] droppedJobsSLA 5710
scalar FogSequentialForward.fog[84].server[0] droppedJobsTotal 5716
scalar FogSequentialForward.fog[85].dispatcher localJobs 9060
scalar FogSequentialForward.fog[85].dispatcher internalJobs 9036
scalar FogSequentialForward.fog[85].dispatcher externalJobs 1011
scalar FogSequentialForward.fog[85].dispatcher remoteJobs 987
scalar FogSequentialForward.fog[85].dispatcher probeQueries 0
scalar FogSequentialForward.fog[85].dispatcher probeAnswers 0
scalar FogSequentialForward.fog[85].dispatcher droppedJobsSLA 0
scalar FogSequentialForward.fog[85].dispatcher jobs_class_1 10047
scalar FogSequentialForward.fog[85].dispatcher remoteJobs_class_1 987
scalar FogSequentialForward.fog[85].dispatcher localJobs_class_1 9060
scalar FogSequentialForward.fog[85].server[0] rho 0.99951487779617
scalar FogSequentialForward.fog[85].server[0] congestionRatio 0
scalar FogSequentialForward.fog[85].server[0] totalJobs 9060
scalar FogSequentialForward.fog[85].server[0] droppedJobsQueue 3
scalar FogSequentialForward.fog[85].server[0] droppedJobsTimout 0
scalar FogSequentialForward.fog[85].server[0] droppedJobsSLA 5773
scalar FogSequentialForward.fog[85].server[0] droppedJobsTotal 5776
scalar FogSequentialForward.fog[86].dispatcher localJobs 8986
scalar FogSequentialForward.fog[86].dispatcher internalJobs 9041
scalar FogSequentialForward.fog[86].dispatcher externalJobs 921
scalar FogSequentialForward.fog[86].dispatcher remoteJobs 976
scalar FogSequentialForward.fog[86].dispatcher probeQueries 0
scalar FogSequentialForward.fog[86].dispatcher probeAnswers 0
scalar FogSequentialForward.fog[86].dispatcher droppedJobsSLA 0
scalar FogSequentialForward.fog[86].dispatcher jobs_class_1 9962
scalar FogSequentialForward.fog[86].dispatcher remoteJobs_class_1 976
scalar FogSequentialForward.fog[86].dispatcher localJobs_class_1 8986
scalar FogSequentialForward.fog[86].server[0] rho 1
scalar FogSequentialForward.fog[86].server[0] congestionRatio 0
scalar FogSequentialForward.fog[86].server[0] totalJobs 8986
scalar FogSequentialForward.fog[86].server[0] droppedJobsQueue 4
scalar FogSequentialForward.fog[86].server[0] droppedJobsTimout 0
scalar FogSequentialForward.fog[86].server[0] droppedJobsSLA 5514
scalar FogSequentialForward.fog[86].server[0] droppedJobsTotal 5518
scalar FogSequentialForward.fog[87].dispatcher localJobs 9052
scalar FogSequentialForward.fog[87].dispatcher internalJobs 9105
scalar FogSequentialForward.fog[87].dispatcher externalJobs 1004
scalar FogSequentialForward.fog[87].dispatcher remoteJobs 1057
scalar FogSequentialForward.fog[87].dispatcher probeQueries 0
scalar FogSequentialForward.fog[87].dispatcher probeAnswers 0
scalar FogSequentialForward.fog[87].dispatcher droppedJobsSLA 0
scalar FogSequentialForward.fog[87].dispatcher jobs_class_1 10109
scalar FogSequentialForward.fog[87].dispatcher remoteJobs_class_1 1057
scalar FogSequentialForward.fog[87].dispatcher localJobs_class_1 9052
scalar FogSequentialForward.fog[87].server[0] rho 0.99933296442032
scalar FogSequentialForward.fog[87].server[0] congestionRatio 0
scalar FogSequentialForward.fog[87].server[0] totalJobs 9052
scalar FogSequentialForward.fog[87].server[0] droppedJobsQueue 7
scalar FogSequentialForward.fog[87].server[0] droppedJobsTimout 0
scalar FogSequentialForward.fog[87].server[0] droppedJobsSLA 5717
scalar FogSequentialForward.fog[87].server[0] droppedJobsTotal 5724
scalar FogSequentialForward.fog[88].dispatcher localJobs 8999
scalar FogSequentialForward.fog[88].dispatcher internalJobs 9076
scalar FogSequentialForward.fog[88].dispatcher externalJobs 943
scalar FogSequentialForward.fog[88].dispatcher remoteJobs 1020
scalar FogSequentialForward.fog[88].dispatcher probeQueries 0
scalar FogSequentialForward.fog[88].dispatcher probeAnswers 0
scalar FogSequentialForward.fog[88].dispatcher droppedJobsSLA 0
scalar FogSequentialForward.fog[88].dispatcher jobs_class_1 10019
scalar FogSequentialForward.fog[88].dispatcher remoteJobs_class_1 1020
scalar FogSequentialForward.fog[88].dispatcher localJobs_class_1 8999
scalar FogSequentialForward.fog[88].server[0] rho 1
scalar FogSequentialForward.fog[88].server[0] congestionRatio 0
scalar FogSequentialForward.fog[88].server[0] totalJobs 8999
scalar FogSequentialForward.fog[88].server[0] droppedJobsQueue 4
scalar FogSequentialForward.fog[88].server[0] droppedJobsTimout 0
scalar FogSequentialForward.fog[88].server[0] droppedJobsSLA 5576
scalar FogSequentialForward.fog[88].server[0] droppedJobsTotal 5580
scalar FogSequentialForward.fog[89].dispatcher localJobs 9004
scalar FogSequentialForward.fog[89].dispatcher internalJobs 8974
scalar FogSequentialForward.fog[89].dispatcher externalJobs 996
scalar FogSequentialForward.fog[89].dispatcher remoteJobs 966
scalar FogSequentialForward.fog[89].dispatcher probeQueries 0
scalar FogSequentialForward.fog[89].dispatcher probeAnswers 0
scalar FogSequentialForward.fog[89].dispatcher droppedJobsSLA 0
scalar FogSequentialForward.fog[89].dispatcher jobs_class_1 9970
scalar FogSequentialForward.fog[89].dispatcher remoteJobs_class_1 966
scalar FogSequentialForward.fog[89].dispatcher localJobs_class_1 9004
scalar FogSequentialForward.fog[89].server[0] rho 1
scalar FogSequentialForward.fog[89].server[0] congestionRatio 0
scalar FogSequentialForward.fog[89].server[0] totalJobs 9004
scalar FogSequentialForward.fog[89].server[0] droppedJobsQueue 4
scalar FogSequentialForward.fog[89].server[0] droppedJobsTimout 0
scalar FogSequentialForward.fog[89].server[0] droppedJobsSLA 5644
scalar FogSequentialForward.fog[89].server[0] droppedJobsTotal 5648
scalar FogSequentialForward.fog[90].dispatcher localJobs 8985
scalar FogSequentialForward.fog[90].dispatcher internalJobs 8893
scalar FogSequentialForward.fog[90].dispatcher externalJobs 970
scalar FogSequentialForward.fog[90].dispatcher remoteJobs 878
scalar FogSequentialForward.fog[90].dispatcher probeQueries 0
scalar FogSequentialForward.fog[90].dispatcher probeAnswers 0
scalar FogSequentialForward.fog[90].dispatcher droppedJobsSLA 0
scalar FogSequentialForward.fog[90].dispatcher jobs_class_1 9863
scalar FogSequentialForward.fog[90].dispatcher remoteJobs_class_1 878
scalar FogSequentialForward.fog[90].dispatcher localJobs_class_1 8985
scalar FogSequentialForward.fog[90].server[0] rho 0.99994307756424
scalar FogSequentialForward.fog[90].server[0] congestionRatio 0
scalar FogSequentialForward.fog[90].server[0] totalJobs 8985
scalar FogSequentialForward.fog[90].server[0] droppedJobsQueue 4
scalar FogSequentialForward.fog[90].server[0] droppedJobsTimout 0
scalar FogSequentialForward.fog[90].server[0] droppedJobsSLA 5600
scalar FogSequentialForward.fog[90].server[0] droppedJobsTotal 5604
scalar FogSequentialForward.fog[91].dispatcher localJobs 9086
scalar FogSequentialForward.fog[91].dispatcher internalJobs 9106
scalar FogSequentialForward.fog[91].dispatcher externalJobs 1008
scalar FogSequentialForward.fog[91].dispatcher remoteJobs 1028
scalar FogSequentialForward.fog[91].dispatcher probeQueries 0
scalar FogSequentialForward.fog[91].dispatcher probeAnswers 0
scalar FogSequentialForward.fog[91].dispatcher droppedJobsSLA 0
scalar FogSequentialForward.fog[91].dispatcher jobs_class_1 10114
scalar FogSequentialForward.fog[91].dispatcher remoteJobs_class_1 1028
scalar FogSequentialForward.fog[91].dispatcher localJobs_class_1 9086
scalar FogSequentialForward.fog[91].server[0] rho 1
scalar FogSequentialForward.fog[91].server[0] congestionRatio 0
scalar FogSequentialForward.fog[91].server[0] totalJobs 9086
scalar FogSequentialForward.fog[91].server[0] droppedJobsQueue 9
scalar FogSequentialForward.fog[91].server[0] droppedJobsTimout 0
scalar FogSequentialForward.fog[91].server[0] droppedJobsSLA 5781
scalar FogSequentialForward.fog[91].server[0] droppedJobsTotal 5790
scalar FogSequentialForward.fog[92].dispatcher localJobs 8961
scalar FogSequentialForward.fog[92].dispatcher internalJobs 8939
scalar FogSequentialForward.fog[92].dispatcher externalJobs 1010
scalar FogSequentialForward.fog[92].dispatcher remoteJobs 988
scalar FogSequentialForward.fog[92].dispatcher probeQueries 0
scalar FogSequentialForward.fog[92].dispatcher probeAnswers 0
scalar FogSequentialForward.fog[92].dispatcher droppedJobsSLA 0
scalar FogSequentialForward.fog[92].dispatcher jobs_class_1 9949
scalar FogSequentialForward.fog[92].dispatcher remoteJobs_class_1 988
scalar FogSequentialForward.fog[92].dispatcher localJobs_class_1 8961
scalar FogSequentialForward.fog[92].server[0] rho 0.99994826316833
scalar FogSequentialForward.fog[92].server[0] congestionRatio 0
scalar FogSequentialForward.fog[92].server[0] totalJobs 8961
scalar FogSequentialForward.fog[92].server[0] droppedJobsQueue 6
scalar FogSequentialForward.fog[92].server[0] droppedJobsTimout 0
scalar FogSequentialForward.fog[92].server[0] droppedJobsSLA 5534
scalar FogSequentialForward.fog[92].server[0] droppedJobsTotal 5540
scalar FogSequentialForward.fog[93].dispatcher localJobs 9083
scalar FogSequentialForward.fog[93].dispatcher internalJobs 9060
scalar FogSequentialForward.fog[93].dispatcher externalJobs 957
scalar FogSequentialForward.fog[93].dispatcher remoteJobs 934
scalar FogSequentialForward.fog[93].dispatcher probeQueries 0
scalar FogSequentialForward.fog[93].dispatcher probeAnswers 0
scalar FogSequentialForward.fog[93].dispatcher droppedJobsSLA 0
scalar FogSequentialForward.fog[93].dispatcher jobs_class_1 10017
scalar FogSequentialForward.fog[93].dispatcher remoteJobs_class_1 934
scalar FogSequentialForward.fog[93].dispatcher localJobs_class_1 9083
scalar FogSequentialForward.fog[93].server[0] rho 1
scalar FogSequentialForward.fog[93].server[0] congestionRatio 0
scalar FogSequentialForward.fog[93].server[0] totalJobs 9083
scalar FogSequentialForward.fog[93].server[0] droppedJobsQueue 5
scalar FogSequentialForward.fog[93].server[0] droppedJobsTimout 0
scalar FogSequentialForward.fog[93].server[0] droppedJobsSLA 5776
scalar FogSequentialForward.fog[93].server[0] droppedJobsTotal 5781
scalar FogSequentialForward.fog[94].dispatcher localJobs 8964
scalar FogSequentialForward.fog[94].dispatcher internalJobs 8950
scalar FogSequentialForward.fog[94].dispatcher externalJobs 972
scalar FogSequentialForward.fog[94].dispatcher remoteJobs 958
scalar FogSequentialForward.fog[94].dispatcher probeQueries 0
scalar FogSequentialForward.fog[94].dispatcher probeAnswers 0
scalar FogSequentialForward.fog[94].dispatcher droppedJobsSLA 0
scalar FogSequentialForward.fog[94].dispatcher jobs_class_1 9922
scalar FogSequentialForward.fog[94].dispatcher remoteJobs_class_1 958
scalar FogSequentialForward.fog[94].dispatcher localJobs_class_1 8964
scalar FogSequentialForward.fog[94].server[0] rho 0.99958443641663
scalar FogSequentialForward.fog[94].server[0] congestionRatio 0
scalar FogSequentialForward.fog[94].server[0] totalJobs 8964
scalar FogSequentialForward.fog[94].server[0] droppedJobsQueue 4
scalar FogSequentialForward.fog[94].server[0] droppedJobsTimout 0
scalar FogSequentialForward.fog[94].server[0] droppedJobsSLA 5546
scalar FogSequentialForward.fog[94].server[0] droppedJobsTotal 5550
scalar FogSequentialForward.fog[95].dispatcher localJobs 9008
scalar FogSequentialForward.fog[95].dispatcher internalJobs 9059
scalar FogSequentialForward.fog[95].dispatcher externalJobs 944
scalar FogSequentialForward.fog[95].dispatcher remoteJobs 995
scalar FogSequentialForward.fog[95].dispatcher probeQueries 0
scalar FogSequentialForward.fog[95].dispatcher probeAnswers 0
scalar FogSequentialForward.fog[95].dispatcher droppedJobsSLA 0
scalar FogSequentialForward.fog[95].dispatcher jobs_class_1 10003
scalar FogSequentialForward.fog[95].dispatcher remoteJobs_class_1 995
scalar FogSequentialForward.fog[95].dispatcher localJobs_class_1 9008
scalar FogSequentialForward.fog[95].server[0] rho 0.99993640184402
scalar FogSequentialForward.fog[95].server[0] congestionRatio 0
scalar FogSequentialForward.fog[95].server[0] totalJobs 9008
scalar FogSequentialForward.fog[95].server[0] droppedJobsQueue 3
scalar FogSequentialForward.fog[95].server[0] droppedJobsTimout 0
scalar FogSequentialForward.fog[95].server[0] droppedJobsSLA 5668
scalar FogSequentialForward.fog[95].server[0] droppedJobsTotal 5671
scalar FogSequentialForward.fog[96].dispatcher localJobs 8989
scalar FogSequentialForward.fog[96].dispatcher internalJobs 8916
scalar FogSequentialForward.fog[96].dispatcher externalJobs 986
scalar FogSequentialForward.fog[96].dispatcher remoteJobs 913
scalar FogSequentialForward.fog[96].dispatcher probeQueries 0
scalar FogSequentialForward.fog[96].dispatcher probeAnswers 0
scalar FogSequentialForward.fog[96].dispatcher droppedJobsSLA 0
scalar FogSequentialForward.fog[96].dispatcher jobs_class_1 9902
scalar FogSequentialForward.fog[96].dispatcher remoteJobs_class_1 913
scalar FogSequentialForward.fog[96].dispatcher localJobs_class_1 8989
scalar FogSequentialForward.fog[96].server[0] rho 1
scalar FogSequentialForward.fog[96].server[0] congestionRatio 0
scalar FogSequentialForward.fog[96].server[0] totalJobs 8989
scalar FogSequentialForward.fog[96].server[0] droppedJobsQueue 8
scalar FogSequentialForward.fog[96].server[0] droppedJobsTimout 0
scalar FogSequentialForward.fog[96].server[0] droppedJobsSLA 5565
scalar FogSequentialForward.fog[96].server[0] droppedJobsTotal 5573
scalar FogSequentialForward.fog[97].dispatcher localJobs 8927
scalar FogSequentialForward.fog[97].dispatcher internalJobs 8977
scalar FogSequentialForward.fog[97].dispatcher externalJobs 948
scalar FogSequentialForward.fog[97].dispatcher remoteJobs 998
scalar FogSequentialForward.fog[97].dispatcher probeQueries 0
scalar FogSequentialForward.fog[97].dispatcher probeAnswers 0
scalar FogSequentialForward.fog[97].dispatcher droppedJobsSLA 0
scalar FogSequentialForward.fog[97].dispatcher jobs_class_1 9925
scalar FogSequentialForward.fog[97].dispatcher remoteJobs_class_1 998
scalar FogSequentialForward.fog[97].dispatcher localJobs_class_1 8927
scalar FogSequentialForward.fog[97].server[0] rho 1
scalar FogSequentialForward.fog[97].server[0] congestionRatio 0
scalar FogSequentialForward.fog[97].server[0] totalJobs 8927
scalar FogSequentialForward.fog[97].server[0] droppedJobsQueue 11
scalar FogSequentialForward.fog[97].server[0] droppedJobsTimout 0
scalar FogSequentialForward.fog[97].server[0] droppedJobsSLA 5409
scalar FogSequentialForward.fog[97].server[0] droppedJobsTotal 5420
scalar FogSequentialForward.fog[98].dispatcher localJobs 8916
scalar FogSequentialForward.fog[98].dispatcher internalJobs 8832
scalar FogSequentialForward.fog[98].dispatcher externalJobs 1013
scalar FogSequentialForward.fog[98].dispatcher remoteJobs 929
scalar FogSequentialForward.fog[98].dispatcher probeQueries 0
scalar FogSequentialForward.fog[98].dispatcher probeAnswers 0
scalar FogSequentialForward.fog[98].dispatcher droppedJobsSLA 0
scalar FogSequentialForward.fog[98].dispatcher jobs_class_1 9845
scalar FogSequentialForward.fog[98].dispatcher remoteJobs_class_1 929
scalar FogSequentialForward.fog[98].dispatcher localJobs_class_1 8916
scalar FogSequentialForward.fog[98].server[0] rho 1
scalar FogSequentialForward.fog[98].server[0] congestionRatio 0
scalar FogSequentialForward.fog[98].server[0] totalJobs 8916
scalar FogSequentialForward.fog[98].server[0] droppedJobsQueue 1
scalar FogSequentialForward.fog[98].server[0] droppedJobsTimout 0
scalar FogSequentialForward.fog[98].server[0] droppedJobsSLA 5511
scalar FogSequentialForward.fog[98].server[0] droppedJobsTotal 5512
scalar FogSequentialForward.fog[99].dispatcher localJobs 9019
scalar FogSequentialForward.fog[99].dispatcher internalJobs 8979
scalar FogSequentialForward.fog[99].dispatcher externalJobs 973
scalar FogSequentialForward.fog[99].dispatcher remoteJobs 933
scalar FogSequentialForward.fog[99].dispatcher probeQueries 0
scalar FogSequentialForward.fog[99].dispatcher probeAnswers 0
scalar FogSequentialForward.fog[99].dispatcher droppedJobsSLA 0
scalar FogSequentialForward.fog[99].dispatcher jobs_class_1 9952
scalar FogSequentialForward.fog[99].dispatcher remoteJobs_class_1 933
scalar FogSequentialForward.fog[99].dispatcher localJobs_class_1 9019
scalar FogSequentialForward.fog[99].server[0] rho 1
scalar FogSequentialForward.fog[99].server[0] congestionRatio 0
scalar FogSequentialForward.fog[99].server[0] totalJobs 9019
scalar FogSequentialForward.fog[99].server[0] droppedJobsQueue 6
scalar FogSequentialForward.fog[99].server[0] droppedJobsTimout 0
scalar FogSequentialForward.fog[99].server[0] droppedJobsSLA 5668
scalar FogSequentialForward.fog[99].server[0] droppedJobsTotal 5674
scalar FogSequentialForward.sink avg_responseTime_1 14.688230986008
scalar FogSequentialForward.sink p90_responseTime_1 1.573900233267
scalar FogSequentialForward.sink med_responseTime_1 1.573900233267
scalar FogSequentialForward.sink avg_delayTime_1 0
scalar FogSequentialForward.sink p90_delayTime_1 0
scalar FogSequentialForward.sink med_delayTime_1 0
scalar FogSequentialForward.sink avg_queuingTime_1 13.011443251063
scalar FogSequentialForward.sink p90_queuingTime_1 0
scalar FogSequentialForward.sink med_queuingTime_1 0
scalar FogSequentialForward.sink avg_serviceTime_1 1.674984108771
scalar FogSequentialForward.sink p90_serviceTime_1 1.514577372964
scalar FogSequentialForward.sink med_serviceTime_1 1.514577372964
scalar FogSequentialForward.sink avg_balancerTime_1 0.0018036261728089
scalar FogSequentialForward.sink p90_balancerTime_1 0
scalar FogSequentialForward.sink med_balancerTime_1 0
scalar FogSequentialForward.sink avg_balancerCount_1 1.108001567234
scalar FogSequentialForward.sink p90_balancerCount_1 1
scalar FogSequentialForward.sink med_balancerCount_1 1

