version 2
run Fog-mul_10-rho_02-thr_4-0-20190714-01:55:03-88870
attr configname Fog-mul_10-rho_02-thr_4
attr datetime 20190714-01:55:03
attr experiment Fog-mul_10-rho_02-thr_4
attr inifile FogSequentialForward.ini
attr iterationvars ""
attr iterationvarsf ""
attr measurement ""
attr network FogSequentialForward
attr processid 88870
attr repetition 0
attr replication #0
attr resultdir results
attr runnumber 0
attr seedset 0
param FogSequentialForward.proctimeMul 1.0
param FogSequentialForward.rho 0.2
param FogSequentialForward.fog[*].dispatcher.thr 4
param FogSequentialForward.nSources 100
param FogSequentialForward.rho 0.9
param FogSequentialForward.proctimeMul 1.0
param FogSequentialForward.source[*].appId 1
param FogSequentialForward.source[*].realTime true
param FogSequentialForward.source[*].multiHop true
param FogSequentialForward.fog[*].nServers 1
param FogSequentialForward.fog[*].dispatcher.fanOut 1
param FogSequentialForward.fog[*].server[*].timeSlice -1s
param FogSequentialForward.fog[*].server[*].timeout -1s
param FogSequentialForward.fog[*].server[*].capacity 20
param FogSequentialForward.fog[*].server[*].fifo true
param FogSequentialForward.fog[*].server[*].maxServiceTime -1s
param FogSequentialForward.fog[*].dispatcher.thr 1

scalar FogSequentialForward.fog[0].dispatcher localJobs 3574
scalar FogSequentialForward.fog[0].dispatcher internalJobs 3593
scalar FogSequentialForward.fog[0].dispatcher externalJobs 75
scalar FogSequentialForward.fog[0].dispatcher remoteJobs 94
scalar FogSequentialForward.fog[0].dispatcher probeQueries 0
scalar FogSequentialForward.fog[0].dispatcher probeAnswers 0
scalar FogSequentialForward.fog[0].dispatcher droppedJobsSLA 0
scalar FogSequentialForward.fog[0].dispatcher jobs_class_1 3668
scalar FogSequentialForward.fog[0].dispatcher remoteJobs_class_1 94
scalar FogSequentialForward.fog[0].dispatcher localJobs_class_1 3574
scalar FogSequentialForward.fog[0].server[0] rho 0.55219650268555
scalar FogSequentialForward.fog[0].server[0] congestionRatio 0
scalar FogSequentialForward.fog[0].server[0] totalJobs 3574
scalar FogSequentialForward.fog[0].server[0] droppedJobsQueue 0
scalar FogSequentialForward.fog[0].server[0] droppedJobsTimout 0
scalar FogSequentialForward.fog[0].server[0] droppedJobsSLA 0
scalar FogSequentialForward.fog[0].server[0] droppedJobsTotal 0
scalar FogSequentialForward.fog[1].dispatcher localJobs 3593
scalar FogSequentialForward.fog[1].dispatcher internalJobs 3579
scalar FogSequentialForward.fog[1].dispatcher externalJobs 88
scalar FogSequentialForward.fog[1].dispatcher remoteJobs 74
scalar FogSequentialForward.fog[1].dispatcher probeQueries 0
scalar FogSequentialForward.fog[1].dispatcher probeAnswers 0
scalar FogSequentialForward.fog[1].dispatcher droppedJobsSLA 0
scalar FogSequentialForward.fog[1].dispatcher jobs_class_1 3667
scalar FogSequentialForward.fog[1].dispatcher remoteJobs_class_1 74
scalar FogSequentialForward.fog[1].dispatcher localJobs_class_1 3593
scalar FogSequentialForward.fog[1].server[0] rho 0.55561071634293
scalar FogSequentialForward.fog[1].server[0] congestionRatio 0
scalar FogSequentialForward.fog[1].server[0] totalJobs 3593
scalar FogSequentialForward.fog[1].server[0] droppedJobsQueue 0
scalar FogSequentialForward.fog[1].server[0] droppedJobsTimout 0
scalar FogSequentialForward.fog[1].server[0] droppedJobsSLA 0
scalar FogSequentialForward.fog[1].server[0] droppedJobsTotal 0
scalar FogSequentialForward.fog[2].dispatcher localJobs 3679
scalar FogSequentialForward.fog[2].dispatcher internalJobs 3666
scalar FogSequentialForward.fog[2].dispatcher externalJobs 95
scalar FogSequentialForward.fog[2].dispatcher remoteJobs 82
scalar FogSequentialForward.fog[2].dispatcher probeQueries 0
scalar FogSequentialForward.fog[2].dispatcher probeAnswers 0
scalar FogSequentialForward.fog[2].dispatcher droppedJobsSLA 0
scalar FogSequentialForward.fog[2].dispatcher jobs_class_1 3761
scalar FogSequentialForward.fog[2].dispatcher remoteJobs_class_1 82
scalar FogSequentialForward.fog[2].dispatcher localJobs_class_1 3679
scalar FogSequentialForward.fog[2].server[0] rho 0.56895560026169
scalar FogSequentialForward.fog[2].server[0] congestionRatio 0
scalar FogSequentialForward.fog[2].server[0] totalJobs 3679
scalar FogSequentialForward.fog[2].server[0] droppedJobsQueue 0
scalar FogSequentialForward.fog[2].server[0] droppedJobsTimout 0
scalar FogSequentialForward.fog[2].server[0] droppedJobsSLA 0
scalar FogSequentialForward.fog[2].server[0] droppedJobsTotal 0
scalar FogSequentialForward.fog[3].dispatcher localJobs 3619
scalar FogSequentialForward.fog[3].dispatcher internalJobs 3614
scalar FogSequentialForward.fog[3].dispatcher externalJobs 84
scalar FogSequentialForward.fog[3].dispatcher remoteJobs 79
scalar FogSequentialForward.fog[3].dispatcher probeQueries 0
scalar FogSequentialForward.fog[3].dispatcher probeAnswers 0
scalar FogSequentialForward.fog[3].dispatcher droppedJobsSLA 0
scalar FogSequentialForward.fog[3].dispatcher jobs_class_1 3698
scalar FogSequentialForward.fog[3].dispatcher remoteJobs_class_1 79
scalar FogSequentialForward.fog[3].dispatcher localJobs_class_1 3619
scalar FogSequentialForward.fog[3].server[0] rho 0.55932927131653
scalar FogSequentialForward.fog[3].server[0] congestionRatio 0
scalar FogSequentialForward.fog[3].server[0] totalJobs 3619
scalar FogSequentialForward.fog[3].server[0] droppedJobsQueue 0
scalar FogSequentialForward.fog[3].server[0] droppedJobsTimout 0
scalar FogSequentialForward.fog[3].server[0] droppedJobsSLA 0
scalar FogSequentialForward.fog[3].server[0] droppedJobsTotal 0
scalar FogSequentialForward.fog[4].dispatcher localJobs 3643
scalar FogSequentialForward.fog[4].dispatcher internalJobs 3652
scalar FogSequentialForward.fog[4].dispatcher externalJobs 76
scalar FogSequentialForward.fog[4].dispatcher remoteJobs 85
scalar FogSequentialForward.fog[4].dispatcher probeQueries 0
scalar FogSequentialForward.fog[4].dispatcher probeAnswers 0
scalar FogSequentialForward.fog[4].dispatcher droppedJobsSLA 0
scalar FogSequentialForward.fog[4].dispatcher jobs_class_1 3728
scalar FogSequentialForward.fog[4].dispatcher remoteJobs_class_1 85
scalar FogSequentialForward.fog[4].dispatcher localJobs_class_1 3643
scalar FogSequentialForward.fog[4].server[0] rho 0.56291180849075
scalar FogSequentialForward.fog[4].server[0] congestionRatio 0
scalar FogSequentialForward.fog[4].server[0] totalJobs 3643
scalar FogSequentialForward.fog[4].server[0] droppedJobsQueue 0
scalar FogSequentialForward.fog[4].server[0] droppedJobsTimout 0
scalar FogSequentialForward.fog[4].server[0] droppedJobsSLA 0
scalar FogSequentialForward.fog[4].server[0] droppedJobsTotal 0
scalar FogSequentialForward.fog[5].dispatcher localJobs 3589
scalar FogSequentialForward.fog[5].dispatcher internalJobs 3596
scalar FogSequentialForward.fog[5].dispatcher externalJobs 74
scalar FogSequentialForward.fog[5].dispatcher remoteJobs 81
scalar FogSequentialForward.fog[5].dispatcher probeQueries 0
scalar FogSequentialForward.fog[5].dispatcher probeAnswers 0
scalar FogSequentialForward.fog[5].dispatcher droppedJobsSLA 0
scalar FogSequentialForward.fog[5].dispatcher jobs_class_1 3670
scalar FogSequentialForward.fog[5].dispatcher remoteJobs_class_1 81
scalar FogSequentialForward.fog[5].dispatcher localJobs_class_1 3589
scalar FogSequentialForward.fog[5].server[0] rho 0.55462795495987
scalar FogSequentialForward.fog[5].server[0] congestionRatio 0
scalar FogSequentialForward.fog[5].server[0] totalJobs 3589
scalar FogSequentialForward.fog[5].server[0] droppedJobsQueue 0
scalar FogSequentialForward.fog[5].server[0] droppedJobsTimout 0
scalar FogSequentialForward.fog[5].server[0] droppedJobsSLA 0
scalar FogSequentialForward.fog[5].server[0] droppedJobsTotal 0
scalar FogSequentialForward.fog[6].dispatcher localJobs 3624
scalar FogSequentialForward.fog[6].dispatcher internalJobs 3641
scalar FogSequentialForward.fog[6].dispatcher externalJobs 81
scalar FogSequentialForward.fog[6].dispatcher remoteJobs 98
scalar FogSequentialForward.fog[6].dispatcher probeQueries 0
scalar FogSequentialForward.fog[6].dispatcher probeAnswers 0
scalar FogSequentialForward.fog[6].dispatcher droppedJobsSLA 0
scalar FogSequentialForward.fog[6].dispatcher jobs_class_1 3722
scalar FogSequentialForward.fog[6].dispatcher remoteJobs_class_1 98
scalar FogSequentialForward.fog[6].dispatcher localJobs_class_1 3624
scalar FogSequentialForward.fog[6].server[0] rho 0.56047773361206
scalar FogSequentialForward.fog[6].server[0] congestionRatio 0
scalar FogSequentialForward.fog[6].server[0] totalJobs 3624
scalar FogSequentialForward.fog[6].server[0] droppedJobsQueue 0
scalar FogSequentialForward.fog[6].server[0] droppedJobsTimout 0
scalar FogSequentialForward.fog[6].server[0] droppedJobsSLA 0
scalar FogSequentialForward.fog[6].server[0] droppedJobsTotal 0
scalar FogSequentialForward.fog[7].dispatcher localJobs 3598
scalar FogSequentialForward.fog[7].dispatcher internalJobs 3563
scalar FogSequentialForward.fog[7].dispatcher externalJobs 100
scalar FogSequentialForward.fog[7].dispatcher remoteJobs 65
scalar FogSequentialForward.fog[7].dispatcher probeQueries 0
scalar FogSequentialForward.fog[7].dispatcher probeAnswers 0
scalar FogSequentialForward.fog[7].dispatcher droppedJobsSLA 0
scalar FogSequentialForward.fog[7].dispatcher jobs_class_1 3663
scalar FogSequentialForward.fog[7].dispatcher remoteJobs_class_1 65
scalar FogSequentialForward.fog[7].dispatcher localJobs_class_1 3598
scalar FogSequentialForward.fog[7].server[0] rho 0.55626106262207
scalar FogSequentialForward.fog[7].server[0] congestionRatio 0
scalar FogSequentialForward.fog[7].server[0] totalJobs 3598
scalar FogSequentialForward.fog[7].server[0] droppedJobsQueue 0
scalar FogSequentialForward.fog[7].server[0] droppedJobsTimout 0
scalar FogSequentialForward.fog[7].server[0] droppedJobsSLA 0
scalar FogSequentialForward.fog[7].server[0] droppedJobsTotal 0
scalar FogSequentialForward.fog[8].dispatcher localJobs 3504
scalar FogSequentialForward.fog[8].dispatcher internalJobs 3487
scalar FogSequentialForward.fog[8].dispatcher externalJobs 85
scalar FogSequentialForward.fog[8].dispatcher remoteJobs 68
scalar FogSequentialForward.fog[8].dispatcher probeQueries 0
scalar FogSequentialForward.fog[8].dispatcher probeAnswers 0
scalar FogSequentialForward.fog[8].dispatcher droppedJobsSLA 0
scalar FogSequentialForward.fog[8].dispatcher jobs_class_1 3572
scalar FogSequentialForward.fog[8].dispatcher remoteJobs_class_1 68
scalar FogSequentialForward.fog[8].dispatcher localJobs_class_1 3504
scalar FogSequentialForward.fog[8].server[0] rho 0.54181772470474
scalar FogSequentialForward.fog[8].server[0] congestionRatio 0
scalar FogSequentialForward.fog[8].server[0] totalJobs 3504
scalar FogSequentialForward.fog[8].server[0] droppedJobsQueue 0
scalar FogSequentialForward.fog[8].server[0] droppedJobsTimout 0
scalar FogSequentialForward.fog[8].server[0] droppedJobsSLA 0
scalar FogSequentialForward.fog[8].server[0] droppedJobsTotal 0
scalar FogSequentialForward.fog[9].dispatcher localJobs 3647
scalar FogSequentialForward.fog[9].dispatcher internalJobs 3648
scalar FogSequentialForward.fog[9].dispatcher externalJobs 82
scalar FogSequentialForward.fog[9].dispatcher remoteJobs 83
scalar FogSequentialForward.fog[9].dispatcher probeQueries 0
scalar FogSequentialForward.fog[9].dispatcher probeAnswers 0
scalar FogSequentialForward.fog[9].dispatcher droppedJobsSLA 0
scalar FogSequentialForward.fog[9].dispatcher jobs_class_1 3730
scalar FogSequentialForward.fog[9].dispatcher remoteJobs_class_1 83
scalar FogSequentialForward.fog[9].dispatcher localJobs_class_1 3647
scalar FogSequentialForward.fog[9].server[0] rho 0.56394731998444
scalar FogSequentialForward.fog[9].server[0] congestionRatio 0
scalar FogSequentialForward.fog[9].server[0] totalJobs 3647
scalar FogSequentialForward.fog[9].server[0] droppedJobsQueue 0
scalar FogSequentialForward.fog[9].server[0] droppedJobsTimout 0
scalar FogSequentialForward.fog[9].server[0] droppedJobsSLA 0
scalar FogSequentialForward.fog[9].server[0] droppedJobsTotal 0
scalar FogSequentialForward.fog[10].dispatcher localJobs 3585
scalar FogSequentialForward.fog[10].dispatcher internalJobs 3603
scalar FogSequentialForward.fog[10].dispatcher externalJobs 76
scalar FogSequentialForward.fog[10].dispatcher remoteJobs 94
scalar FogSequentialForward.fog[10].dispatcher probeQueries 0
scalar FogSequentialForward.fog[10].dispatcher probeAnswers 0
scalar FogSequentialForward.fog[10].dispatcher droppedJobsSLA 0
scalar FogSequentialForward.fog[10].dispatcher jobs_class_1 3679
scalar FogSequentialForward.fog[10].dispatcher remoteJobs_class_1 94
scalar FogSequentialForward.fog[10].dispatcher localJobs_class_1 3585
scalar FogSequentialForward.fog[10].server[0] rho 0.55453246831894
scalar FogSequentialForward.fog[10].server[0] congestionRatio 0
scalar FogSequentialForward.fog[10].server[0] totalJobs 3585
scalar FogSequentialForward.fog[10].server[0] droppedJobsQueue 0
scalar FogSequentialForward.fog[10].server[0] droppedJobsTimout 0
scalar FogSequentialForward.fog[10].server[0] droppedJobsSLA 0
scalar FogSequentialForward.fog[10].server[0] droppedJobsTotal 0
scalar FogSequentialForward.fog[11].dispatcher localJobs 3552
scalar FogSequentialForward.fog[11].dispatcher internalJobs 3555
scalar FogSequentialForward.fog[11].dispatcher externalJobs 84
scalar FogSequentialForward.fog[11].dispatcher remoteJobs 87
scalar FogSequentialForward.fog[11].dispatcher probeQueries 0
scalar FogSequentialForward.fog[11].dispatcher probeAnswers 0
scalar FogSequentialForward.fog[11].dispatcher droppedJobsSLA 0
scalar FogSequentialForward.fog[11].dispatcher jobs_class_1 3639
scalar FogSequentialForward.fog[11].dispatcher remoteJobs_class_1 87
scalar FogSequentialForward.fog[11].dispatcher localJobs_class_1 3552
scalar FogSequentialForward.fog[11].server[0] rho 0.54946482181549
scalar FogSequentialForward.fog[11].server[0] congestionRatio 0
scalar FogSequentialForward.fog[11].server[0] totalJobs 3552
scalar FogSequentialForward.fog[11].server[0] droppedJobsQueue 0
scalar FogSequentialForward.fog[11].server[0] droppedJobsTimout 0
scalar FogSequentialForward.fog[11].server[0] droppedJobsSLA 0
scalar FogSequentialForward.fog[11].server[0] droppedJobsTotal 0
scalar FogSequentialForward.fog[12].dispatcher localJobs 3555
scalar FogSequentialForward.fog[12].dispatcher internalJobs 3554
scalar FogSequentialForward.fog[12].dispatcher externalJobs 89
scalar FogSequentialForward.fog[12].dispatcher remoteJobs 88
scalar FogSequentialForward.fog[12].dispatcher probeQueries 0
scalar FogSequentialForward.fog[12].dispatcher probeAnswers 0
scalar FogSequentialForward.fog[12].dispatcher droppedJobsSLA 0
scalar FogSequentialForward.fog[12].dispatcher jobs_class_1 3643
scalar FogSequentialForward.fog[12].dispatcher remoteJobs_class_1 88
scalar FogSequentialForward.fog[12].dispatcher localJobs_class_1 3555
scalar FogSequentialForward.fog[12].server[0] rho 0.54965674877167
scalar FogSequentialForward.fog[12].server[0] congestionRatio 0
scalar FogSequentialForward.fog[12].server[0] totalJobs 3555
scalar FogSequentialForward.fog[12].server[0] droppedJobsQueue 0
scalar FogSequentialForward.fog[12].server[0] droppedJobsTimout 0
scalar FogSequentialForward.fog[12].server[0] droppedJobsSLA 0
scalar FogSequentialForward.fog[12].server[0] droppedJobsTotal 0
scalar FogSequentialForward.fog[13].dispatcher localJobs 3585
scalar FogSequentialForward.fog[13].dispatcher internalJobs 3609
scalar FogSequentialForward.fog[13].dispatcher externalJobs 80
scalar FogSequentialForward.fog[13].dispatcher remoteJobs 104
scalar FogSequentialForward.fog[13].dispatcher probeQueries 0
scalar FogSequentialForward.fog[13].dispatcher probeAnswers 0
scalar FogSequentialForward.fog[13].dispatcher droppedJobsSLA 0
scalar FogSequentialForward.fog[13].dispatcher jobs_class_1 3689
scalar FogSequentialForward.fog[13].dispatcher remoteJobs_class_1 104
scalar FogSequentialForward.fog[13].dispatcher localJobs_class_1 3585
scalar FogSequentialForward.fog[13].server[0] rho 0.554030418396
scalar FogSequentialForward.fog[13].server[0] congestionRatio 0
scalar FogSequentialForward.fog[13].server[0] totalJobs 3585
scalar FogSequentialForward.fog[13].server[0] droppedJobsQueue 0
scalar FogSequentialForward.fog[13].server[0] droppedJobsTimout 0
scalar FogSequentialForward.fog[13].server[0] droppedJobsSLA 0
scalar FogSequentialForward.fog[13].server[0] droppedJobsTotal 0
scalar FogSequentialForward.fog[14].dispatcher localJobs 3661
scalar FogSequentialForward.fog[14].dispatcher internalJobs 3667
scalar FogSequentialForward.fog[14].dispatcher externalJobs 76
scalar FogSequentialForward.fog[14].dispatcher remoteJobs 82
scalar FogSequentialForward.fog[14].dispatcher probeQueries 0
scalar FogSequentialForward.fog[14].dispatcher probeAnswers 0
scalar FogSequentialForward.fog[14].dispatcher droppedJobsSLA 0
scalar FogSequentialForward.fog[14].dispatcher jobs_class_1 3743
scalar FogSequentialForward.fog[14].dispatcher remoteJobs_class_1 82
scalar FogSequentialForward.fog[14].dispatcher localJobs_class_1 3661
scalar FogSequentialForward.fog[14].server[0] rho 0.5658323764801
scalar FogSequentialForward.fog[14].server[0] congestionRatio 0
scalar FogSequentialForward.fog[14].server[0] totalJobs 3661
scalar FogSequentialForward.fog[14].server[0] droppedJobsQueue 0
scalar FogSequentialForward.fog[14].server[0] droppedJobsTimout 0
scalar FogSequentialForward.fog[14].server[0] droppedJobsSLA 0
scalar FogSequentialForward.fog[14].server[0] droppedJobsTotal 0
scalar FogSequentialForward.fog[15].dispatcher localJobs 3623
scalar FogSequentialForward.fog[15].dispatcher internalJobs 3606
scalar FogSequentialForward.fog[15].dispatcher externalJobs 98
scalar FogSequentialForward.fog[15].dispatcher remoteJobs 81
scalar FogSequentialForward.fog[15].dispatcher probeQueries 0
scalar FogSequentialForward.fog[15].dispatcher probeAnswers 0
scalar FogSequentialForward.fog[15].dispatcher droppedJobsSLA 0
scalar FogSequentialForward.fog[15].dispatcher jobs_class_1 3704
scalar FogSequentialForward.fog[15].dispatcher remoteJobs_class_1 81
scalar FogSequentialForward.fog[15].dispatcher localJobs_class_1 3623
scalar FogSequentialForward.fog[15].server[0] rho 0.56009727716446
scalar FogSequentialForward.fog[15].server[0] congestionRatio 0
scalar FogSequentialForward.fog[15].server[0] totalJobs 3623
scalar FogSequentialForward.fog[15].server[0] droppedJobsQueue 0
scalar FogSequentialForward.fog[15].server[0] droppedJobsTimout 0
scalar FogSequentialForward.fog[15].server[0] droppedJobsSLA 0
scalar FogSequentialForward.fog[15].server[0] droppedJobsTotal 0
scalar FogSequentialForward.fog[16].dispatcher localJobs 3564
scalar FogSequentialForward.fog[16].dispatcher internalJobs 3565
scalar FogSequentialForward.fog[16].dispatcher externalJobs 74
scalar FogSequentialForward.fog[16].dispatcher remoteJobs 75
scalar FogSequentialForward.fog[16].dispatcher probeQueries 0
scalar FogSequentialForward.fog[16].dispatcher probeAnswers 0
scalar FogSequentialForward.fog[16].dispatcher droppedJobsSLA 0
scalar FogSequentialForward.fog[16].dispatcher jobs_class_1 3639
scalar FogSequentialForward.fog[16].dispatcher remoteJobs_class_1 75
scalar FogSequentialForward.fog[16].dispatcher localJobs_class_1 3564
scalar FogSequentialForward.fog[16].server[0] rho 0.55108428001404
scalar FogSequentialForward.fog[16].server[0] congestionRatio 0
scalar FogSequentialForward.fog[16].server[0] totalJobs 3564
scalar FogSequentialForward.fog[16].server[0] droppedJobsQueue 0
scalar FogSequentialForward.fog[16].server[0] droppedJobsTimout 0
scalar FogSequentialForward.fog[16].server[0] droppedJobsSLA 0
scalar FogSequentialForward.fog[16].server[0] droppedJobsTotal 0
scalar FogSequentialForward.fog[17].dispatcher localJobs 3528
scalar FogSequentialForward.fog[17].dispatcher internalJobs 3495
scalar FogSequentialForward.fog[17].dispatcher externalJobs 92
scalar FogSequentialForward.fog[17].dispatcher remoteJobs 59
scalar FogSequentialForward.fog[17].dispatcher probeQueries 0
scalar FogSequentialForward.fog[17].dispatcher probeAnswers 0
scalar FogSequentialForward.fog[17].dispatcher droppedJobsSLA 0
scalar FogSequentialForward.fog[17].dispatcher jobs_class_1 3587
scalar FogSequentialForward.fog[17].dispatcher remoteJobs_class_1 59
scalar FogSequentialForward.fog[17].dispatcher localJobs_class_1 3528
scalar FogSequentialForward.fog[17].server[0] rho 0.54546117782593
scalar FogSequentialForward.fog[17].server[0] congestionRatio 0
scalar FogSequentialForward.fog[17].server[0] totalJobs 3528
scalar FogSequentialForward.fog[17].server[0] droppedJobsQueue 0
scalar FogSequentialForward.fog[17].server[0] droppedJobsTimout 0
scalar FogSequentialForward.fog[17].server[0] droppedJobsSLA 0
scalar FogSequentialForward.fog[17].server[0] droppedJobsTotal 0
scalar FogSequentialForward.fog[18].dispatcher localJobs 3605
scalar FogSequentialForward.fog[18].dispatcher internalJobs 3612
scalar FogSequentialForward.fog[18].dispatcher externalJobs 81
scalar FogSequentialForward.fog[18].dispatcher remoteJobs 88
scalar FogSequentialForward.fog[18].dispatcher probeQueries 0
scalar FogSequentialForward.fog[18].dispatcher probeAnswers 0
scalar FogSequentialForward.fog[18].dispatcher droppedJobsSLA 0
scalar FogSequentialForward.fog[18].dispatcher jobs_class_1 3693
scalar FogSequentialForward.fog[18].dispatcher remoteJobs_class_1 88
scalar FogSequentialForward.fog[18].dispatcher localJobs_class_1 3605
scalar FogSequentialForward.fog[18].server[0] rho 0.55746692419052
scalar FogSequentialForward.fog[18].server[0] congestionRatio 0
scalar FogSequentialForward.fog[18].server[0] totalJobs 3605
scalar FogSequentialForward.fog[18].server[0] droppedJobsQueue 0
scalar FogSequentialForward.fog[18].server[0] droppedJobsTimout 0
scalar FogSequentialForward.fog[18].server[0] droppedJobsSLA 0
scalar FogSequentialForward.fog[18].server[0] droppedJobsTotal 0
scalar FogSequentialForward.fog[19].dispatcher localJobs 3693
scalar FogSequentialForward.fog[19].dispatcher internalJobs 3679
scalar FogSequentialForward.fog[19].dispatcher externalJobs 98
scalar FogSequentialForward.fog[19].dispatcher remoteJobs 84
scalar FogSequentialForward.fog[19].dispatcher probeQueries 0
scalar FogSequentialForward.fog[19].dispatcher probeAnswers 0
scalar FogSequentialForward.fog[19].dispatcher droppedJobsSLA 0
scalar FogSequentialForward.fog[19].dispatcher jobs_class_1 3777
scalar FogSequentialForward.fog[19].dispatcher remoteJobs_class_1 84
scalar FogSequentialForward.fog[19].dispatcher localJobs_class_1 3693
scalar FogSequentialForward.fog[19].server[0] rho 0.57071435451508
scalar FogSequentialForward.fog[19].server[0] congestionRatio 0
scalar FogSequentialForward.fog[19].server[0] totalJobs 3693
scalar FogSequentialForward.fog[19].server[0] droppedJobsQueue 0
scalar FogSequentialForward.fog[19].server[0] droppedJobsTimout 0
scalar FogSequentialForward.fog[19].server[0] droppedJobsSLA 0
scalar FogSequentialForward.fog[19].server[0] droppedJobsTotal 0
scalar FogSequentialForward.fog[20].dispatcher localJobs 3637
scalar FogSequentialForward.fog[20].dispatcher internalJobs 3634
scalar FogSequentialForward.fog[20].dispatcher externalJobs 73
scalar FogSequentialForward.fog[20].dispatcher remoteJobs 70
scalar FogSequentialForward.fog[20].dispatcher probeQueries 0
scalar FogSequentialForward.fog[20].dispatcher probeAnswers 0
scalar FogSequentialForward.fog[20].dispatcher droppedJobsSLA 0
scalar FogSequentialForward.fog[20].dispatcher jobs_class_1 3707
scalar FogSequentialForward.fog[20].dispatcher remoteJobs_class_1 70
scalar FogSequentialForward.fog[20].dispatcher localJobs_class_1 3637
scalar FogSequentialForward.fog[20].server[0] rho 0.56225490570068
scalar FogSequentialForward.fog[20].server[0] congestionRatio 0
scalar FogSequentialForward.fog[20].server[0] totalJobs 3637
scalar FogSequentialForward.fog[20].server[0] droppedJobsQueue 0
scalar FogSequentialForward.fog[20].server[0] droppedJobsTimout 0
scalar FogSequentialForward.fog[20].server[0] droppedJobsSLA 0
scalar FogSequentialForward.fog[20].server[0] droppedJobsTotal 0
scalar FogSequentialForward.fog[21].dispatcher localJobs 3548
scalar FogSequentialForward.fog[21].dispatcher internalJobs 3530
scalar FogSequentialForward.fog[21].dispatcher externalJobs 88
scalar FogSequentialForward.fog[21].dispatcher remoteJobs 70
scalar FogSequentialForward.fog[21].dispatcher probeQueries 0
scalar FogSequentialForward.fog[21].dispatcher probeAnswers 0
scalar FogSequentialForward.fog[21].dispatcher droppedJobsSLA 0
scalar FogSequentialForward.fog[21].dispatcher jobs_class_1 3618
scalar FogSequentialForward.fog[21].dispatcher remoteJobs_class_1 70
scalar FogSequentialForward.fog[21].dispatcher localJobs_class_1 3548
scalar FogSequentialForward.fog[21].server[0] rho 0.54872965812683
scalar FogSequentialForward.fog[21].server[0] congestionRatio 0
scalar FogSequentialForward.fog[21].server[0] totalJobs 3548
scalar FogSequentialForward.fog[21].server[0] droppedJobsQueue 0
scalar FogSequentialForward.fog[21].server[0] droppedJobsTimout 0
scalar FogSequentialForward.fog[21].server[0] droppedJobsSLA 0
scalar FogSequentialForward.fog[21].server[0] droppedJobsTotal 0
scalar FogSequentialForward.fog[22].dispatcher localJobs 3615
scalar FogSequentialForward.fog[22].dispatcher internalJobs 3631
scalar FogSequentialForward.fog[22].dispatcher externalJobs 77
scalar FogSequentialForward.fog[22].dispatcher remoteJobs 93
scalar FogSequentialForward.fog[22].dispatcher probeQueries 0
scalar FogSequentialForward.fog[22].dispatcher probeAnswers 0
scalar FogSequentialForward.fog[22].dispatcher droppedJobsSLA 0
scalar FogSequentialForward.fog[22].dispatcher jobs_class_1 3708
scalar FogSequentialForward.fog[22].dispatcher remoteJobs_class_1 93
scalar FogSequentialForward.fog[22].dispatcher localJobs_class_1 3615
scalar FogSequentialForward.fog[22].server[0] rho 0.55899751186371
scalar FogSequentialForward.fog[22].server[0] congestionRatio 0
scalar FogSequentialForward.fog[22].server[0] totalJobs 3615
scalar FogSequentialForward.fog[22].server[0] droppedJobsQueue 0
scalar FogSequentialForward.fog[22].server[0] droppedJobsTimout 0
scalar FogSequentialForward.fog[22].server[0] droppedJobsSLA 0
scalar FogSequentialForward.fog[22].server[0] droppedJobsTotal 0
scalar FogSequentialForward.fog[23].dispatcher localJobs 3577
scalar FogSequentialForward.fog[23].dispatcher internalJobs 3550
scalar FogSequentialForward.fog[23].dispatcher externalJobs 86
scalar FogSequentialForward.fog[23].dispatcher remoteJobs 59
scalar FogSequentialForward.fog[23].dispatcher probeQueries 0
scalar FogSequentialForward.fog[23].dispatcher probeAnswers 0
scalar FogSequentialForward.fog[23].dispatcher droppedJobsSLA 0
scalar FogSequentialForward.fog[23].dispatcher jobs_class_1 3636
scalar FogSequentialForward.fog[23].dispatcher remoteJobs_class_1 59
scalar FogSequentialForward.fog[23].dispatcher localJobs_class_1 3577
scalar FogSequentialForward.fog[23].server[0] rho 0.55287659168243
scalar FogSequentialForward.fog[23].server[0] congestionRatio 0
scalar FogSequentialForward.fog[23].server[0] totalJobs 3577
scalar FogSequentialForward.fog[23].server[0] droppedJobsQueue 0
scalar FogSequentialForward.fog[23].server[0] droppedJobsTimout 0
scalar FogSequentialForward.fog[23].server[0] droppedJobsSLA 0
scalar FogSequentialForward.fog[23].server[0] droppedJobsTotal 0
scalar FogSequentialForward.fog[24].dispatcher localJobs 3613
scalar FogSequentialForward.fog[24].dispatcher internalJobs 3602
scalar FogSequentialForward.fog[24].dispatcher externalJobs 70
scalar FogSequentialForward.fog[24].dispatcher remoteJobs 59
scalar FogSequentialForward.fog[24].dispatcher probeQueries 0
scalar FogSequentialForward.fog[24].dispatcher probeAnswers 0
scalar FogSequentialForward.fog[24].dispatcher droppedJobsSLA 0
scalar FogSequentialForward.fog[24].dispatcher jobs_class_1 3672
scalar FogSequentialForward.fog[24].dispatcher remoteJobs_class_1 59
scalar FogSequentialForward.fog[24].dispatcher localJobs_class_1 3613
scalar FogSequentialForward.fog[24].server[0] rho 0.55876326560974
scalar FogSequentialForward.fog[24].server[0] congestionRatio 0
scalar FogSequentialForward.fog[24].server[0] totalJobs 3613
scalar FogSequentialForward.fog[24].server[0] droppedJobsQueue 0
scalar FogSequentialForward.fog[24].server[0] droppedJobsTimout 0
scalar FogSequentialForward.fog[24].server[0] droppedJobsSLA 0
scalar FogSequentialForward.fog[24].server[0] droppedJobsTotal 0
scalar FogSequentialForward.fog[25].dispatcher localJobs 3663
scalar FogSequentialForward.fog[25].dispatcher internalJobs 3673
scalar FogSequentialForward.fog[25].dispatcher externalJobs 81
scalar FogSequentialForward.fog[25].dispatcher remoteJobs 91
scalar FogSequentialForward.fog[25].dispatcher probeQueries 0
scalar FogSequentialForward.fog[25].dispatcher probeAnswers 0
scalar FogSequentialForward.fog[25].dispatcher droppedJobsSLA 0
scalar FogSequentialForward.fog[25].dispatcher jobs_class_1 3754
scalar FogSequentialForward.fog[25].dispatcher remoteJobs_class_1 91
scalar FogSequentialForward.fog[25].dispatcher localJobs_class_1 3663
scalar FogSequentialForward.fog[25].server[0] rho 0.56594055891037
scalar FogSequentialForward.fog[25].server[0] congestionRatio 0
scalar FogSequentialForward.fog[25].server[0] totalJobs 3663
scalar FogSequentialForward.fog[25].server[0] droppedJobsQueue 0
scalar FogSequentialForward.fog[25].server[0] droppedJobsTimout 0
scalar FogSequentialForward.fog[25].server[0] droppedJobsSLA 0
scalar FogSequentialForward.fog[25].server[0] droppedJobsTotal 0
scalar FogSequentialForward.fog[26].dispatcher localJobs 3591
scalar FogSequentialForward.fog[26].dispatcher internalJobs 3592
scalar FogSequentialForward.fog[26].dispatcher externalJobs 73
scalar FogSequentialForward.fog[26].dispatcher remoteJobs 74
scalar FogSequentialForward.fog[26].dispatcher probeQueries 0
scalar FogSequentialForward.fog[26].dispatcher probeAnswers 0
scalar FogSequentialForward.fog[26].dispatcher droppedJobsSLA 0
scalar FogSequentialForward.fog[26].dispatcher jobs_class_1 3665
scalar FogSequentialForward.fog[26].dispatcher remoteJobs_class_1 74
scalar FogSequentialForward.fog[26].dispatcher localJobs_class_1 3591
scalar FogSequentialForward.fog[26].server[0] rho 0.55528718233109
scalar FogSequentialForward.fog[26].server[0] congestionRatio 0
scalar FogSequentialForward.fog[26].server[0] totalJobs 3591
scalar FogSequentialForward.fog[26].server[0] droppedJobsQueue 0
scalar FogSequentialForward.fog[26].server[0] droppedJobsTimout 0
scalar FogSequentialForward.fog[26].server[0] droppedJobsSLA 0
scalar FogSequentialForward.fog[26].server[0] droppedJobsTotal 0
scalar FogSequentialForward.fog[27].dispatcher localJobs 3605
scalar FogSequentialForward.fog[27].dispatcher internalJobs 3589
scalar FogSequentialForward.fog[27].dispatcher externalJobs 107
scalar FogSequentialForward.fog[27].dispatcher remoteJobs 91
scalar FogSequentialForward.fog[27].dispatcher probeQueries 0
scalar FogSequentialForward.fog[27].dispatcher probeAnswers 0
scalar FogSequentialForward.fog[27].dispatcher droppedJobsSLA 0
scalar FogSequentialForward.fog[27].dispatcher jobs_class_1 3696
scalar FogSequentialForward.fog[27].dispatcher remoteJobs_class_1 91
scalar FogSequentialForward.fog[27].dispatcher localJobs_class_1 3605
scalar FogSequentialForward.fog[27].server[0] rho 0.55711215734482
scalar FogSequentialForward.fog[27].server[0] congestionRatio 0
scalar FogSequentialForward.fog[27].server[0] totalJobs 3605
scalar FogSequentialForward.fog[27].server[0] droppedJobsQueue 0
scalar FogSequentialForward.fog[27].server[0] droppedJobsTimout 0
scalar FogSequentialForward.fog[27].server[0] droppedJobsSLA 0
scalar FogSequentialForward.fog[27].server[0] droppedJobsTotal 0
scalar FogSequentialForward.fog[28].dispatcher localJobs 3596
scalar FogSequentialForward.fog[28].dispatcher internalJobs 3605
scalar FogSequentialForward.fog[28].dispatcher externalJobs 70
scalar FogSequentialForward.fog[28].dispatcher remoteJobs 79
scalar FogSequentialForward.fog[28].dispatcher probeQueries 0
scalar FogSequentialForward.fog[28].dispatcher probeAnswers 0
scalar FogSequentialForward.fog[28].dispatcher droppedJobsSLA 0
scalar FogSequentialForward.fog[28].dispatcher jobs_class_1 3675
scalar FogSequentialForward.fog[28].dispatcher remoteJobs_class_1 79
scalar FogSequentialForward.fog[28].dispatcher localJobs_class_1 3596
scalar FogSequentialForward.fog[28].server[0] rho 0.55597418546677
scalar FogSequentialForward.fog[28].server[0] congestionRatio 0
scalar FogSequentialForward.fog[28].server[0] totalJobs 3596
scalar FogSequentialForward.fog[28].server[0] droppedJobsQueue 0
scalar FogSequentialForward.fog[28].server[0] droppedJobsTimout 0
scalar FogSequentialForward.fog[28].server[0] droppedJobsSLA 0
scalar FogSequentialForward.fog[28].server[0] droppedJobsTotal 0
scalar FogSequentialForward.fog[29].dispatcher localJobs 3592
scalar FogSequentialForward.fog[29].dispatcher internalJobs 3600
scalar FogSequentialForward.fog[29].dispatcher externalJobs 77
scalar FogSequentialForward.fog[29].dispatcher remoteJobs 85
scalar FogSequentialForward.fog[29].dispatcher probeQueries 0
scalar FogSequentialForward.fog[29].dispatcher probeAnswers 0
scalar FogSequentialForward.fog[29].dispatcher droppedJobsSLA 0
scalar FogSequentialForward.fog[29].dispatcher jobs_class_1 3677
scalar FogSequentialForward.fog[29].dispatcher remoteJobs_class_1 85
scalar FogSequentialForward.fog[29].dispatcher localJobs_class_1 3592
scalar FogSequentialForward.fog[29].server[0] rho 0.55537128448486
scalar FogSequentialForward.fog[29].server[0] congestionRatio 0
scalar FogSequentialForward.fog[29].server[0] totalJobs 3592
scalar FogSequentialForward.fog[29].server[0] droppedJobsQueue 0
scalar FogSequentialForward.fog[29].server[0] droppedJobsTimout 0
scalar FogSequentialForward.fog[29].server[0] droppedJobsSLA 0
scalar FogSequentialForward.fog[29].server[0] droppedJobsTotal 0
scalar FogSequentialForward.fog[30].dispatcher localJobs 3652
scalar FogSequentialForward.fog[30].dispatcher internalJobs 3638
scalar FogSequentialForward.fog[30].dispatcher externalJobs 82
scalar FogSequentialForward.fog[30].dispatcher remoteJobs 68
scalar FogSequentialForward.fog[30].dispatcher probeQueries 0
scalar FogSequentialForward.fog[30].dispatcher probeAnswers 0
scalar FogSequentialForward.fog[30].dispatcher droppedJobsSLA 0
scalar FogSequentialForward.fog[30].dispatcher jobs_class_1 3720
scalar FogSequentialForward.fog[30].dispatcher remoteJobs_class_1 68
scalar FogSequentialForward.fog[30].dispatcher localJobs_class_1 3652
scalar FogSequentialForward.fog[30].server[0] rho 0.56473553180695
scalar FogSequentialForward.fog[30].server[0] congestionRatio 0
scalar FogSequentialForward.fog[30].server[0] totalJobs 3652
scalar FogSequentialForward.fog[30].server[0] droppedJobsQueue 0
scalar FogSequentialForward.fog[30].server[0] droppedJobsTimout 0
scalar FogSequentialForward.fog[30].server[0] droppedJobsSLA 0
scalar FogSequentialForward.fog[30].server[0] droppedJobsTotal 0
scalar FogSequentialForward.fog[31].dispatcher localJobs 3604
scalar FogSequentialForward.fog[31].dispatcher internalJobs 3616
scalar FogSequentialForward.fog[31].dispatcher externalJobs 72
scalar FogSequentialForward.fog[31].dispatcher remoteJobs 84
scalar FogSequentialForward.fog[31].dispatcher probeQueries 0
scalar FogSequentialForward.fog[31].dispatcher probeAnswers 0
scalar FogSequentialForward.fog[31].dispatcher droppedJobsSLA 0
scalar FogSequentialForward.fog[31].dispatcher jobs_class_1 3688
scalar FogSequentialForward.fog[31].dispatcher remoteJobs_class_1 84
scalar FogSequentialForward.fog[31].dispatcher localJobs_class_1 3604
scalar FogSequentialForward.fog[31].server[0] rho 0.5574369430542
scalar FogSequentialForward.fog[31].server[0] congestionRatio 0
scalar FogSequentialForward.fog[31].server[0] totalJobs 3604
scalar FogSequentialForward.fog[31].server[0] droppedJobsQueue 0
scalar FogSequentialForward.fog[31].server[0] droppedJobsTimout 0
scalar FogSequentialForward.fog[31].server[0] droppedJobsSLA 0
scalar FogSequentialForward.fog[31].server[0] droppedJobsTotal 0
scalar FogSequentialForward.fog[32].dispatcher localJobs 3572
scalar FogSequentialForward.fog[32].dispatcher internalJobs 3578
scalar FogSequentialForward.fog[32].dispatcher externalJobs 76
scalar FogSequentialForward.fog[32].dispatcher remoteJobs 82
scalar FogSequentialForward.fog[32].dispatcher probeQueries 0
scalar FogSequentialForward.fog[32].dispatcher probeAnswers 0
scalar FogSequentialForward.fog[32].dispatcher droppedJobsSLA 0
scalar FogSequentialForward.fog[32].dispatcher jobs_class_1 3654
scalar FogSequentialForward.fog[32].dispatcher remoteJobs_class_1 82
scalar FogSequentialForward.fog[32].dispatcher localJobs_class_1 3572
scalar FogSequentialForward.fog[32].server[0] rho 0.55198007822037
scalar FogSequentialForward.fog[32].server[0] congestionRatio 0
scalar FogSequentialForward.fog[32].server[0] totalJobs 3572
scalar FogSequentialForward.fog[32].server[0] droppedJobsQueue 0
scalar FogSequentialForward.fog[32].server[0] droppedJobsTimout 0
scalar FogSequentialForward.fog[32].server[0] droppedJobsSLA 0
scalar FogSequentialForward.fog[32].server[0] droppedJobsTotal 0
scalar FogSequentialForward.fog[33].dispatcher localJobs 3490
scalar FogSequentialForward.fog[33].dispatcher internalJobs 3491
scalar FogSequentialForward.fog[33].dispatcher externalJobs 75
scalar FogSequentialForward.fog[33].dispatcher remoteJobs 76
scalar FogSequentialForward.fog[33].dispatcher probeQueries 0
scalar FogSequentialForward.fog[33].dispatcher probeAnswers 0
scalar FogSequentialForward.fog[33].dispatcher droppedJobsSLA 0
scalar FogSequentialForward.fog[33].dispatcher jobs_class_1 3566
scalar FogSequentialForward.fog[33].dispatcher remoteJobs_class_1 76
scalar FogSequentialForward.fog[33].dispatcher localJobs_class_1 3490
scalar FogSequentialForward.fog[33].server[0] rho 0.53968518972397
scalar FogSequentialForward.fog[33].server[0] congestionRatio 0
scalar FogSequentialForward.fog[33].server[0] totalJobs 3490
scalar FogSequentialForward.fog[33].server[0] droppedJobsQueue 0
scalar FogSequentialForward.fog[33].server[0] droppedJobsTimout 0
scalar FogSequentialForward.fog[33].server[0] droppedJobsSLA 0
scalar FogSequentialForward.fog[33].server[0] droppedJobsTotal 0
scalar FogSequentialForward.fog[34].dispatcher localJobs 3695
scalar FogSequentialForward.fog[34].dispatcher internalJobs 3728
scalar FogSequentialForward.fog[34].dispatcher externalJobs 82
scalar FogSequentialForward.fog[34].dispatcher remoteJobs 115
scalar FogSequentialForward.fog[34].dispatcher probeQueries 0
scalar FogSequentialForward.fog[34].dispatcher probeAnswers 0
scalar FogSequentialForward.fog[34].dispatcher droppedJobsSLA 0
scalar FogSequentialForward.fog[34].dispatcher jobs_class_1 3810
scalar FogSequentialForward.fog[34].dispatcher remoteJobs_class_1 115
scalar FogSequentialForward.fog[34].dispatcher localJobs_class_1 3695
scalar FogSequentialForward.fog[34].server[0] rho 0.57124364376068
scalar FogSequentialForward.fog[34].server[0] congestionRatio 0
scalar FogSequentialForward.fog[34].server[0] totalJobs 3695
scalar FogSequentialForward.fog[34].server[0] droppedJobsQueue 0
scalar FogSequentialForward.fog[34].server[0] droppedJobsTimout 0
scalar FogSequentialForward.fog[34].server[0] droppedJobsSLA 0
scalar FogSequentialForward.fog[34].server[0] droppedJobsTotal 0
scalar FogSequentialForward.fog[35].dispatcher localJobs 3550
scalar FogSequentialForward.fog[35].dispatcher internalJobs 3536
scalar FogSequentialForward.fog[35].dispatcher externalJobs 90
scalar FogSequentialForward.fog[35].dispatcher remoteJobs 76
scalar FogSequentialForward.fog[35].dispatcher probeQueries 0
scalar FogSequentialForward.fog[35].dispatcher probeAnswers 0
scalar FogSequentialForward.fog[35].dispatcher droppedJobsSLA 0
scalar FogSequentialForward.fog[35].dispatcher jobs_class_1 3626
scalar FogSequentialForward.fog[35].dispatcher remoteJobs_class_1 76
scalar FogSequentialForward.fog[35].dispatcher localJobs_class_1 3550
scalar FogSequentialForward.fog[35].server[0] rho 0.54881680011749
scalar FogSequentialForward.fog[35].server[0] congestionRatio 0
scalar FogSequentialForward.fog[35].server[0] totalJobs 3550
scalar FogSequentialForward.fog[35].server[0] droppedJobsQueue 0
scalar FogSequentialForward.fog[35].server[0] droppedJobsTimout 0
scalar FogSequentialForward.fog[35].server[0] droppedJobsSLA 0
scalar FogSequentialForward.fog[35].server[0] droppedJobsTotal 0
scalar FogSequentialForward.fog[36].dispatcher localJobs 3649
scalar FogSequentialForward.fog[36].dispatcher internalJobs 3650
scalar FogSequentialForward.fog[36].dispatcher externalJobs 87
scalar FogSequentialForward.fog[36].dispatcher remoteJobs 88
scalar FogSequentialForward.fog[36].dispatcher probeQueries 0
scalar FogSequentialForward.fog[36].dispatcher probeAnswers 0
scalar FogSequentialForward.fog[36].dispatcher droppedJobsSLA 0
scalar FogSequentialForward.fog[36].dispatcher jobs_class_1 3737
scalar FogSequentialForward.fog[36].dispatcher remoteJobs_class_1 88
scalar FogSequentialForward.fog[36].dispatcher localJobs_class_1 3649
scalar FogSequentialForward.fog[36].server[0] rho 0.56434100866318
scalar FogSequentialForward.fog[36].server[0] congestionRatio 0
scalar FogSequentialForward.fog[36].server[0] totalJobs 3649
scalar FogSequentialForward.fog[36].server[0] droppedJobsQueue 0
scalar FogSequentialForward.fog[36].server[0] droppedJobsTimout 0
scalar FogSequentialForward.fog[36].server[0] droppedJobsSLA 0
scalar FogSequentialForward.fog[36].server[0] droppedJobsTotal 0
scalar FogSequentialForward.fog[37].dispatcher localJobs 3689
scalar FogSequentialForward.fog[37].dispatcher internalJobs 3704
scalar FogSequentialForward.fog[37].dispatcher externalJobs 84
scalar FogSequentialForward.fog[37].dispatcher remoteJobs 99
scalar FogSequentialForward.fog[37].dispatcher probeQueries 0
scalar FogSequentialForward.fog[37].dispatcher probeAnswers 0
scalar FogSequentialForward.fog[37].dispatcher droppedJobsSLA 0
scalar FogSequentialForward.fog[37].dispatcher jobs_class_1 3788
scalar FogSequentialForward.fog[37].dispatcher remoteJobs_class_1 99
scalar FogSequentialForward.fog[37].dispatcher localJobs_class_1 3689
scalar FogSequentialForward.fog[37].server[0] rho 0.57056546211243
scalar FogSequentialForward.fog[37].server[0] congestionRatio 0
scalar FogSequentialForward.fog[37].server[0] totalJobs 3689
scalar FogSequentialForward.fog[37].server[0] droppedJobsQueue 0
scalar FogSequentialForward.fog[37].server[0] droppedJobsTimout 0
scalar FogSequentialForward.fog[37].server[0] droppedJobsSLA 0
scalar FogSequentialForward.fog[37].server[0] droppedJobsTotal 0
scalar FogSequentialForward.fog[38].dispatcher localJobs 3674
scalar FogSequentialForward.fog[38].dispatcher internalJobs 3676
scalar FogSequentialForward.fog[38].dispatcher externalJobs 81
scalar FogSequentialForward.fog[38].dispatcher remoteJobs 83
scalar FogSequentialForward.fog[38].dispatcher probeQueries 0
scalar FogSequentialForward.fog[38].dispatcher probeAnswers 0
scalar FogSequentialForward.fog[38].dispatcher droppedJobsSLA 0
scalar FogSequentialForward.fog[38].dispatcher jobs_class_1 3757
scalar FogSequentialForward.fog[38].dispatcher remoteJobs_class_1 83
scalar FogSequentialForward.fog[38].dispatcher localJobs_class_1 3674
scalar FogSequentialForward.fog[38].server[0] rho 0.56830012798309
scalar FogSequentialForward.fog[38].server[0] congestionRatio 0
scalar FogSequentialForward.fog[38].server[0] totalJobs 3674
scalar FogSequentialForward.fog[38].server[0] droppedJobsQueue 0
scalar FogSequentialForward.fog[38].server[0] droppedJobsTimout 0
scalar FogSequentialForward.fog[38].server[0] droppedJobsSLA 0
scalar FogSequentialForward.fog[38].server[0] droppedJobsTotal 0
scalar FogSequentialForward.fog[39].dispatcher localJobs 3652
scalar FogSequentialForward.fog[39].dispatcher internalJobs 3662
scalar FogSequentialForward.fog[39].dispatcher externalJobs 86
scalar FogSequentialForward.fog[39].dispatcher remoteJobs 96
scalar FogSequentialForward.fog[39].dispatcher probeQueries 0
scalar FogSequentialForward.fog[39].dispatcher probeAnswers 0
scalar FogSequentialForward.fog[39].dispatcher droppedJobsSLA 0
scalar FogSequentialForward.fog[39].dispatcher jobs_class_1 3748
scalar FogSequentialForward.fog[39].dispatcher remoteJobs_class_1 96
scalar FogSequentialForward.fog[39].dispatcher localJobs_class_1 3652
scalar FogSequentialForward.fog[39].server[0] rho 0.5645238161087
scalar FogSequentialForward.fog[39].server[0] congestionRatio 0
scalar FogSequentialForward.fog[39].server[0] totalJobs 3652
scalar FogSequentialForward.fog[39].server[0] droppedJobsQueue 0
scalar FogSequentialForward.fog[39].server[0] droppedJobsTimout 0
scalar FogSequentialForward.fog[39].server[0] droppedJobsSLA 0
scalar FogSequentialForward.fog[39].server[0] droppedJobsTotal 0
scalar FogSequentialForward.fog[40].dispatcher localJobs 3509
scalar FogSequentialForward.fog[40].dispatcher internalJobs 3503
scalar FogSequentialForward.fog[40].dispatcher externalJobs 76
scalar FogSequentialForward.fog[40].dispatcher remoteJobs 70
scalar FogSequentialForward.fog[40].dispatcher probeQueries 0
scalar FogSequentialForward.fog[40].dispatcher probeAnswers 0
scalar FogSequentialForward.fog[40].dispatcher droppedJobsSLA 0
scalar FogSequentialForward.fog[40].dispatcher jobs_class_1 3579
scalar FogSequentialForward.fog[40].dispatcher remoteJobs_class_1 70
scalar FogSequentialForward.fog[40].dispatcher localJobs_class_1 3509
scalar FogSequentialForward.fog[40].server[0] rho 0.54245710372925
scalar FogSequentialForward.fog[40].server[0] congestionRatio 0
scalar FogSequentialForward.fog[40].server[0] totalJobs 3509
scalar FogSequentialForward.fog[40].server[0] droppedJobsQueue 0
scalar FogSequentialForward.fog[40].server[0] droppedJobsTimout 0
scalar FogSequentialForward.fog[40].server[0] droppedJobsSLA 0
scalar FogSequentialForward.fog[40].server[0] droppedJobsTotal 0
scalar FogSequentialForward.fog[41].dispatcher localJobs 3606
scalar FogSequentialForward.fog[41].dispatcher internalJobs 3585
scalar FogSequentialForward.fog[41].dispatcher externalJobs 82
scalar FogSequentialForward.fog[41].dispatcher remoteJobs 61
scalar FogSequentialForward.fog[41].dispatcher probeQueries 0
scalar FogSequentialForward.fog[41].dispatcher probeAnswers 0
scalar FogSequentialForward.fog[41].dispatcher droppedJobsSLA 0
scalar FogSequentialForward.fog[41].dispatcher jobs_class_1 3667
scalar FogSequentialForward.fog[41].dispatcher remoteJobs_class_1 61
scalar FogSequentialForward.fog[41].dispatcher localJobs_class_1 3606
scalar FogSequentialForward.fog[41].server[0] rho 0.55789518356323
scalar FogSequentialForward.fog[41].server[0] congestionRatio 0
scalar FogSequentialForward.fog[41].server[0] totalJobs 3606
scalar FogSequentialForward.fog[41].server[0] droppedJobsQueue 0
scalar FogSequentialForward.fog[41].server[0] droppedJobsTimout 0
scalar FogSequentialForward.fog[41].server[0] droppedJobsSLA 0
scalar FogSequentialForward.fog[41].server[0] droppedJobsTotal 0
scalar FogSequentialForward.fog[42].dispatcher localJobs 3584
scalar FogSequentialForward.fog[42].dispatcher internalJobs 3602
scalar FogSequentialForward.fog[42].dispatcher externalJobs 81
scalar FogSequentialForward.fog[42].dispatcher remoteJobs 99
scalar FogSequentialForward.fog[42].dispatcher probeQueries 0
scalar FogSequentialForward.fog[42].dispatcher probeAnswers 0
scalar FogSequentialForward.fog[42].dispatcher droppedJobsSLA 0
scalar FogSequentialForward.fog[42].dispatcher jobs_class_1 3683
scalar FogSequentialForward.fog[42].dispatcher remoteJobs_class_1 99
scalar FogSequentialForward.fog[42].dispatcher localJobs_class_1 3584
scalar FogSequentialForward.fog[42].server[0] rho 0.55437231063843
scalar FogSequentialForward.fog[42].server[0] congestionRatio 0
scalar FogSequentialForward.fog[42].server[0] totalJobs 3584
scalar FogSequentialForward.fog[42].server[0] droppedJobsQueue 0
scalar FogSequentialForward.fog[42].server[0] droppedJobsTimout 0
scalar FogSequentialForward.fog[42].server[0] droppedJobsSLA 0
scalar FogSequentialForward.fog[42].server[0] droppedJobsTotal 0
scalar FogSequentialForward.fog[43].dispatcher localJobs 3532
scalar FogSequentialForward.fog[43].dispatcher internalJobs 3537
scalar FogSequentialForward.fog[43].dispatcher externalJobs 80
scalar FogSequentialForward.fog[43].dispatcher remoteJobs 85
scalar FogSequentialForward.fog[43].dispatcher probeQueries 0
scalar FogSequentialForward.fog[43].dispatcher probeAnswers 0
scalar FogSequentialForward.fog[43].dispatcher droppedJobsSLA 0
scalar FogSequentialForward.fog[43].dispatcher jobs_class_1 3617
scalar FogSequentialForward.fog[43].dispatcher remoteJobs_class_1 85
scalar FogSequentialForward.fog[43].dispatcher localJobs_class_1 3532
scalar FogSequentialForward.fog[43].server[0] rho 0.54605656862259
scalar FogSequentialForward.fog[43].server[0] congestionRatio 0
scalar FogSequentialForward.fog[43].server[0] totalJobs 3532
scalar FogSequentialForward.fog[43].server[0] droppedJobsQueue 0
scalar FogSequentialForward.fog[43].server[0] droppedJobsTimout 0
scalar FogSequentialForward.fog[43].server[0] droppedJobsSLA 0
scalar FogSequentialForward.fog[43].server[0] droppedJobsTotal 0
scalar FogSequentialForward.fog[44].dispatcher localJobs 3674
scalar FogSequentialForward.fog[44].dispatcher internalJobs 3691
scalar FogSequentialForward.fog[44].dispatcher externalJobs 71
scalar FogSequentialForward.fog[44].dispatcher remoteJobs 88
scalar FogSequentialForward.fog[44].dispatcher probeQueries 0
scalar FogSequentialForward.fog[44].dispatcher probeAnswers 0
scalar FogSequentialForward.fog[44].dispatcher droppedJobsSLA 0
scalar FogSequentialForward.fog[44].dispatcher jobs_class_1 3762
scalar FogSequentialForward.fog[44].dispatcher remoteJobs_class_1 88
scalar FogSequentialForward.fog[44].dispatcher localJobs_class_1 3674
scalar FogSequentialForward.fog[44].server[0] rho 0.56765580177307
scalar FogSequentialForward.fog[44].server[0] congestionRatio 0
scalar FogSequentialForward.fog[44].server[0] totalJobs 3674
scalar FogSequentialForward.fog[44].server[0] droppedJobsQueue 0
scalar FogSequentialForward.fog[44].server[0] droppedJobsTimout 0
scalar FogSequentialForward.fog[44].server[0] droppedJobsSLA 0
scalar FogSequentialForward.fog[44].server[0] droppedJobsTotal 0
scalar FogSequentialForward.fog[45].dispatcher localJobs 3547
scalar FogSequentialForward.fog[45].dispatcher internalJobs 3532
scalar FogSequentialForward.fog[45].dispatcher externalJobs 79
scalar FogSequentialForward.fog[45].dispatcher remoteJobs 64
scalar FogSequentialForward.fog[45].dispatcher probeQueries 0
scalar FogSequentialForward.fog[45].dispatcher probeAnswers 0
scalar FogSequentialForward.fog[45].dispatcher droppedJobsSLA 0
scalar FogSequentialForward.fog[45].dispatcher jobs_class_1 3611
scalar FogSequentialForward.fog[45].dispatcher remoteJobs_class_1 64
scalar FogSequentialForward.fog[45].dispatcher localJobs_class_1 3547
scalar FogSequentialForward.fog[45].server[0] rho 0.54820823669434
scalar FogSequentialForward.fog[45].server[0] congestionRatio 0
scalar FogSequentialForward.fog[45].server[0] totalJobs 3547
scalar FogSequentialForward.fog[45].server[0] droppedJobsQueue 0
scalar FogSequentialForward.fog[45].server[0] droppedJobsTimout 0
scalar FogSequentialForward.fog[45].server[0] droppedJobsSLA 0
scalar FogSequentialForward.fog[45].server[0] droppedJobsTotal 0
scalar FogSequentialForward.fog[46].dispatcher localJobs 3585
scalar FogSequentialForward.fog[46].dispatcher internalJobs 3593
scalar FogSequentialForward.fog[46].dispatcher externalJobs 94
scalar FogSequentialForward.fog[46].dispatcher remoteJobs 102
scalar FogSequentialForward.fog[46].dispatcher probeQueries 0
scalar FogSequentialForward.fog[46].dispatcher probeAnswers 0
scalar FogSequentialForward.fog[46].dispatcher droppedJobsSLA 0
scalar FogSequentialForward.fog[46].dispatcher jobs_class_1 3687
scalar FogSequentialForward.fog[46].dispatcher remoteJobs_class_1 102
scalar FogSequentialForward.fog[46].dispatcher localJobs_class_1 3585
scalar FogSequentialForward.fog[46].server[0] rho 0.55434423685074
scalar FogSequentialForward.fog[46].server[0] congestionRatio 0
scalar FogSequentialForward.fog[46].server[0] totalJobs 3585
scalar FogSequentialForward.fog[46].server[0] droppedJobsQueue 0
scalar FogSequentialForward.fog[46].server[0] droppedJobsTimout 0
scalar FogSequentialForward.fog[46].server[0] droppedJobsSLA 0
scalar FogSequentialForward.fog[46].server[0] droppedJobsTotal 0
scalar FogSequentialForward.fog[47].dispatcher localJobs 3669
scalar FogSequentialForward.fog[47].dispatcher internalJobs 3664
scalar FogSequentialForward.fog[47].dispatcher externalJobs 81
scalar FogSequentialForward.fog[47].dispatcher remoteJobs 76
scalar FogSequentialForward.fog[47].dispatcher probeQueries 0
scalar FogSequentialForward.fog[47].dispatcher probeAnswers 0
scalar FogSequentialForward.fog[47].dispatcher droppedJobsSLA 0
scalar FogSequentialForward.fog[47].dispatcher jobs_class_1 3745
scalar FogSequentialForward.fog[47].dispatcher remoteJobs_class_1 76
scalar FogSequentialForward.fog[47].dispatcher localJobs_class_1 3669
scalar FogSequentialForward.fog[47].server[0] rho 0.56725305318832
scalar FogSequentialForward.fog[47].server[0] congestionRatio 0
scalar FogSequentialForward.fog[47].server[0] totalJobs 3669
scalar FogSequentialForward.fog[47].server[0] droppedJobsQueue 0
scalar FogSequentialForward.fog[47].server[0] droppedJobsTimout 0
scalar FogSequentialForward.fog[47].server[0] droppedJobsSLA 0
scalar FogSequentialForward.fog[47].server[0] droppedJobsTotal 0
scalar FogSequentialForward.fog[48].dispatcher localJobs 3628
scalar FogSequentialForward.fog[48].dispatcher internalJobs 3625
scalar FogSequentialForward.fog[48].dispatcher externalJobs 92
scalar FogSequentialForward.fog[48].dispatcher remoteJobs 89
scalar FogSequentialForward.fog[48].dispatcher probeQueries 0
scalar FogSequentialForward.fog[48].dispatcher probeAnswers 0
scalar FogSequentialForward.fog[48].dispatcher droppedJobsSLA 0
scalar FogSequentialForward.fog[48].dispatcher jobs_class_1 3717
scalar FogSequentialForward.fog[48].dispatcher remoteJobs_class_1 89
scalar FogSequentialForward.fog[48].dispatcher localJobs_class_1 3628
scalar FogSequentialForward.fog[48].server[0] rho 0.56113481521606
scalar FogSequentialForward.fog[48].server[0] congestionRatio 0
scalar FogSequentialForward.fog[48].server[0] totalJobs 3628
scalar FogSequentialForward.fog[48].server[0] droppedJobsQueue 0
scalar FogSequentialForward.fog[48].server[0] droppedJobsTimout 0
scalar FogSequentialForward.fog[48].server[0] droppedJobsSLA 0
scalar FogSequentialForward.fog[48].server[0] droppedJobsTotal 0
scalar FogSequentialForward.fog[49].dispatcher localJobs 3596
scalar FogSequentialForward.fog[49].dispatcher internalJobs 3579
scalar FogSequentialForward.fog[49].dispatcher externalJobs 87
scalar FogSequentialForward.fog[49].dispatcher remoteJobs 70
scalar FogSequentialForward.fog[49].dispatcher probeQueries 0
scalar FogSequentialForward.fog[49].dispatcher probeAnswers 0
scalar FogSequentialForward.fog[49].dispatcher droppedJobsSLA 0
scalar FogSequentialForward.fog[49].dispatcher jobs_class_1 3666
scalar FogSequentialForward.fog[49].dispatcher remoteJobs_class_1 70
scalar FogSequentialForward.fog[49].dispatcher localJobs_class_1 3596
scalar FogSequentialForward.fog[49].server[0] rho 0.55621534585953
scalar FogSequentialForward.fog[49].server[0] congestionRatio 0
scalar FogSequentialForward.fog[49].server[0] totalJobs 3596
scalar FogSequentialForward.fog[49].server[0] droppedJobsQueue 0
scalar FogSequentialForward.fog[49].server[0] droppedJobsTimout 0
scalar FogSequentialForward.fog[49].server[0] droppedJobsSLA 0
scalar FogSequentialForward.fog[49].server[0] droppedJobsTotal 0
scalar FogSequentialForward.fog[50].dispatcher localJobs 3585
scalar FogSequentialForward.fog[50].dispatcher internalJobs 3601
scalar FogSequentialForward.fog[50].dispatcher externalJobs 84
scalar FogSequentialForward.fog[50].dispatcher remoteJobs 100
scalar FogSequentialForward.fog[50].dispatcher probeQueries 0
scalar FogSequentialForward.fog[50].dispatcher probeAnswers 0
scalar FogSequentialForward.fog[50].dispatcher droppedJobsSLA 0
scalar FogSequentialForward.fog[50].dispatcher jobs_class_1 3685
scalar FogSequentialForward.fog[50].dispatcher remoteJobs_class_1 100
scalar FogSequentialForward.fog[50].dispatcher localJobs_class_1 3585
scalar FogSequentialForward.fog[50].server[0] rho 0.55437827110291
scalar FogSequentialForward.fog[50].server[0] congestionRatio 0
scalar FogSequentialForward.fog[50].server[0] totalJobs 3585
scalar FogSequentialForward.fog[50].server[0] droppedJobsQueue 0
scalar FogSequentialForward.fog[50].server[0] droppedJobsTimout 0
scalar FogSequentialForward.fog[50].server[0] droppedJobsSLA 0
scalar FogSequentialForward.fog[50].server[0] droppedJobsTotal 0
scalar FogSequentialForward.fog[51].dispatcher localJobs 3597
scalar FogSequentialForward.fog[51].dispatcher internalJobs 3598
scalar FogSequentialForward.fog[51].dispatcher externalJobs 79
scalar FogSequentialForward.fog[51].dispatcher remoteJobs 80
scalar FogSequentialForward.fog[51].dispatcher probeQueries 0
scalar FogSequentialForward.fog[51].dispatcher probeAnswers 0
scalar FogSequentialForward.fog[51].dispatcher droppedJobsSLA 0
scalar FogSequentialForward.fog[51].dispatcher jobs_class_1 3677
scalar FogSequentialForward.fog[51].dispatcher remoteJobs_class_1 80
scalar FogSequentialForward.fog[51].dispatcher localJobs_class_1 3597
scalar FogSequentialForward.fog[51].server[0] rho 0.5564780831337
scalar FogSequentialForward.fog[51].server[0] congestionRatio 0
scalar FogSequentialForward.fog[51].server[0] totalJobs 3597
scalar FogSequentialForward.fog[51].server[0] droppedJobsQueue 0
scalar FogSequentialForward.fog[51].server[0] droppedJobsTimout 0
scalar FogSequentialForward.fog[51].server[0] droppedJobsSLA 0
scalar FogSequentialForward.fog[51].server[0] droppedJobsTotal 0
scalar FogSequentialForward.fog[52].dispatcher localJobs 3575
scalar FogSequentialForward.fog[52].dispatcher internalJobs 3554
scalar FogSequentialForward.fog[52].dispatcher externalJobs 77
scalar FogSequentialForward.fog[52].dispatcher remoteJobs 56
scalar FogSequentialForward.fog[52].dispatcher probeQueries 0
scalar FogSequentialForward.fog[52].dispatcher probeAnswers 0
scalar FogSequentialForward.fog[52].dispatcher droppedJobsSLA 0
scalar FogSequentialForward.fog[52].dispatcher jobs_class_1 3631
scalar FogSequentialForward.fog[52].dispatcher remoteJobs_class_1 56
scalar FogSequentialForward.fog[52].dispatcher localJobs_class_1 3575
scalar FogSequentialForward.fog[52].server[0] rho 0.55286258459091
scalar FogSequentialForward.fog[52].server[0] congestionRatio 0
scalar FogSequentialForward.fog[52].server[0] totalJobs 3575
scalar FogSequentialForward.fog[52].server[0] droppedJobsQueue 0
scalar FogSequentialForward.fog[52].server[0] droppedJobsTimout 0
scalar FogSequentialForward.fog[52].server[0] droppedJobsSLA 0
scalar FogSequentialForward.fog[52].server[0] droppedJobsTotal 0
scalar FogSequentialForward.fog[53].dispatcher localJobs 3513
scalar FogSequentialForward.fog[53].dispatcher internalJobs 3522
scalar FogSequentialForward.fog[53].dispatcher externalJobs 74
scalar FogSequentialForward.fog[53].dispatcher remoteJobs 83
scalar FogSequentialForward.fog[53].dispatcher probeQueries 0
scalar FogSequentialForward.fog[53].dispatcher probeAnswers 0
scalar FogSequentialForward.fog[53].dispatcher droppedJobsSLA 0
scalar FogSequentialForward.fog[53].dispatcher jobs_class_1 3596
scalar FogSequentialForward.fog[53].dispatcher remoteJobs_class_1 83
scalar FogSequentialForward.fog[53].dispatcher localJobs_class_1 3513
scalar FogSequentialForward.fog[53].server[0] rho 0.54313236474991
scalar FogSequentialForward.fog[53].server[0] congestionRatio 0
scalar FogSequentialForward.fog[53].server[0] totalJobs 3513
scalar FogSequentialForward.fog[53].server[0] droppedJobsQueue 0
scalar FogSequentialForward.fog[53].server[0] droppedJobsTimout 0
scalar FogSequentialForward.fog[53].server[0] droppedJobsSLA 0
scalar FogSequentialForward.fog[53].server[0] droppedJobsTotal 0
scalar FogSequentialForward.fog[54].dispatcher localJobs 3533
scalar FogSequentialForward.fog[54].dispatcher internalJobs 3519
scalar FogSequentialForward.fog[54].dispatcher externalJobs 94
scalar FogSequentialForward.fog[54].dispatcher remoteJobs 80
scalar FogSequentialForward.fog[54].dispatcher probeQueries 0
scalar FogSequentialForward.fog[54].dispatcher probeAnswers 0
scalar FogSequentialForward.fog[54].dispatcher droppedJobsSLA 0
scalar FogSequentialForward.fog[54].dispatcher jobs_class_1 3613
scalar FogSequentialForward.fog[54].dispatcher remoteJobs_class_1 80
scalar FogSequentialForward.fog[54].dispatcher localJobs_class_1 3533
scalar FogSequentialForward.fog[54].server[0] rho 0.54615378379822
scalar FogSequentialForward.fog[54].server[0] congestionRatio 0
scalar FogSequentialForward.fog[54].server[0] totalJobs 3533
scalar FogSequentialForward.fog[54].server[0] droppedJobsQueue 0
scalar FogSequentialForward.fog[54].server[0] droppedJobsTimout 0
scalar FogSequentialForward.fog[54].server[0] droppedJobsSLA 0
scalar FogSequentialForward.fog[54].server[0] droppedJobsTotal 0
scalar FogSequentialForward.fog[55].dispatcher localJobs 3588
scalar FogSequentialForward.fog[55].dispatcher internalJobs 3603
scalar FogSequentialForward.fog[55].dispatcher externalJobs 88
scalar FogSequentialForward.fog[55].dispatcher remoteJobs 103
scalar FogSequentialForward.fog[55].dispatcher probeQueries 0
scalar FogSequentialForward.fog[55].dispatcher probeAnswers 0
scalar FogSequentialForward.fog[55].dispatcher droppedJobsSLA 0
scalar FogSequentialForward.fog[55].dispatcher jobs_class_1 3691
scalar FogSequentialForward.fog[55].dispatcher remoteJobs_class_1 103
scalar FogSequentialForward.fog[55].dispatcher localJobs_class_1 3588
scalar FogSequentialForward.fog[55].server[0] rho 0.55484843254089
scalar FogSequentialForward.fog[55].server[0] congestionRatio 0
scalar FogSequentialForward.fog[55].server[0] totalJobs 3588
scalar FogSequentialForward.fog[55].server[0] droppedJobsQueue 0
scalar FogSequentialForward.fog[55].server[0] droppedJobsTimout 0
scalar FogSequentialForward.fog[55].server[0] droppedJobsSLA 0
scalar FogSequentialForward.fog[55].server[0] droppedJobsTotal 0
scalar FogSequentialForward.fog[56].dispatcher localJobs 3564
scalar FogSequentialForward.fog[56].dispatcher internalJobs 3556
scalar FogSequentialForward.fog[56].dispatcher externalJobs 86
scalar FogSequentialForward.fog[56].dispatcher remoteJobs 78
scalar FogSequentialForward.fog[56].dispatcher probeQueries 0
scalar FogSequentialForward.fog[56].dispatcher probeAnswers 0
scalar FogSequentialForward.fog[56].dispatcher droppedJobsSLA 0
scalar FogSequentialForward.fog[56].dispatcher jobs_class_1 3642
scalar FogSequentialForward.fog[56].dispatcher remoteJobs_class_1 78
scalar FogSequentialForward.fog[56].dispatcher localJobs_class_1 3564
scalar FogSequentialForward.fog[56].server[0] rho 0.55084758996964
scalar FogSequentialForward.fog[56].server[0] congestionRatio 0
scalar FogSequentialForward.fog[56].server[0] totalJobs 3564
scalar FogSequentialForward.fog[56].server[0] droppedJobsQueue 0
scalar FogSequentialForward.fog[56].server[0] droppedJobsTimout 0
scalar FogSequentialForward.fog[56].server[0] droppedJobsSLA 0
scalar FogSequentialForward.fog[56].server[0] droppedJobsTotal 0
scalar FogSequentialForward.fog[57].dispatcher localJobs 3629
scalar FogSequentialForward.fog[57].dispatcher internalJobs 3622
scalar FogSequentialForward.fog[57].dispatcher externalJobs 89
scalar FogSequentialForward.fog[57].dispatcher remoteJobs 82
scalar FogSequentialForward.fog[57].dispatcher probeQueries 0
scalar FogSequentialForward.fog[57].dispatcher probeAnswers 0
scalar FogSequentialForward.fog[57].dispatcher droppedJobsSLA 0
scalar FogSequentialForward.fog[57].dispatcher jobs_class_1 3711
scalar FogSequentialForward.fog[57].dispatcher remoteJobs_class_1 82
scalar FogSequentialForward.fog[57].dispatcher localJobs_class_1 3629
scalar FogSequentialForward.fog[57].server[0] rho 0.56117862462997
scalar FogSequentialForward.fog[57].server[0] congestionRatio 0
scalar FogSequentialForward.fog[57].server[0] totalJobs 3629
scalar FogSequentialForward.fog[57].server[0] droppedJobsQueue 0
scalar FogSequentialForward.fog[57].server[0] droppedJobsTimout 0
scalar FogSequentialForward.fog[57].server[0] droppedJobsSLA 0
scalar FogSequentialForward.fog[57].server[0] droppedJobsTotal 0
scalar FogSequentialForward.fog[58].dispatcher localJobs 3604
scalar FogSequentialForward.fog[58].dispatcher internalJobs 3647
scalar FogSequentialForward.fog[58].dispatcher externalJobs 65
scalar FogSequentialForward.fog[58].dispatcher remoteJobs 108
scalar FogSequentialForward.fog[58].dispatcher probeQueries 0
scalar FogSequentialForward.fog[58].dispatcher probeAnswers 0
scalar FogSequentialForward.fog[58].dispatcher droppedJobsSLA 0
scalar FogSequentialForward.fog[58].dispatcher jobs_class_1 3712
scalar FogSequentialForward.fog[58].dispatcher remoteJobs_class_1 108
scalar FogSequentialForward.fog[58].dispatcher localJobs_class_1 3604
scalar FogSequentialForward.fog[58].server[0] rho 0.55728566646576
scalar FogSequentialForward.fog[58].server[0] congestionRatio 0
scalar FogSequentialForward.fog[58].server[0] totalJobs 3604
scalar FogSequentialForward.fog[58].server[0] droppedJobsQueue 0
scalar FogSequentialForward.fog[58].server[0] droppedJobsTimout 0
scalar FogSequentialForward.fog[58].server[0] droppedJobsSLA 0
scalar FogSequentialForward.fog[58].server[0] droppedJobsTotal 0
scalar FogSequentialForward.fog[59].dispatcher localJobs 3592
scalar FogSequentialForward.fog[59].dispatcher internalJobs 3588
scalar FogSequentialForward.fog[59].dispatcher externalJobs 78
scalar FogSequentialForward.fog[59].dispatcher remoteJobs 74
scalar FogSequentialForward.fog[59].dispatcher probeQueries 0
scalar FogSequentialForward.fog[59].dispatcher probeAnswers 0
scalar FogSequentialForward.fog[59].dispatcher droppedJobsSLA 0
scalar FogSequentialForward.fog[59].dispatcher jobs_class_1 3666
scalar FogSequentialForward.fog[59].dispatcher remoteJobs_class_1 74
scalar FogSequentialForward.fog[59].dispatcher localJobs_class_1 3592
scalar FogSequentialForward.fog[59].server[0] rho 0.55601704120636
scalar FogSequentialForward.fog[59].server[0] congestionRatio 0
scalar FogSequentialForward.fog[59].server[0] totalJobs 3592
scalar FogSequentialForward.fog[59].server[0] droppedJobsQueue 0
scalar FogSequentialForward.fog[59].server[0] droppedJobsTimout 0
scalar FogSequentialForward.fog[59].server[0] droppedJobsSLA 0
scalar FogSequentialForward.fog[59].server[0] droppedJobsTotal 0
scalar FogSequentialForward.fog[60].dispatcher localJobs 3523
scalar FogSequentialForward.fog[60].dispatcher internalJobs 3501
scalar FogSequentialForward.fog[60].dispatcher externalJobs 96
scalar FogSequentialForward.fog[60].dispatcher remoteJobs 74
scalar FogSequentialForward.fog[60].dispatcher probeQueries 0
scalar FogSequentialForward.fog[60].dispatcher probeAnswers 0
scalar FogSequentialForward.fog[60].dispatcher droppedJobsSLA 0
scalar FogSequentialForward.fog[60].dispatcher jobs_class_1 3597
scalar FogSequentialForward.fog[60].dispatcher remoteJobs_class_1 74
scalar FogSequentialForward.fog[60].dispatcher localJobs_class_1 3523
scalar FogSequentialForward.fog[60].server[0] rho 0.54495233297348
scalar FogSequentialForward.fog[60].server[0] congestionRatio 0
scalar FogSequentialForward.fog[60].server[0] totalJobs 3523
scalar FogSequentialForward.fog[60].server[0] droppedJobsQueue 0
scalar FogSequentialForward.fog[60].server[0] droppedJobsTimout 0
scalar FogSequentialForward.fog[60].server[0] droppedJobsSLA 0
scalar FogSequentialForward.fog[60].server[0] droppedJobsTotal 0
scalar FogSequentialForward.fog[61].dispatcher localJobs 3634
scalar FogSequentialForward.fog[61].dispatcher internalJobs 3649
scalar FogSequentialForward.fog[61].dispatcher externalJobs 72
scalar FogSequentialForward.fog[61].dispatcher remoteJobs 87
scalar FogSequentialForward.fog[61].dispatcher probeQueries 0
scalar FogSequentialForward.fog[61].dispatcher probeAnswers 0
scalar FogSequentialForward.fog[61].dispatcher droppedJobsSLA 0
scalar FogSequentialForward.fog[61].dispatcher jobs_class_1 3721
scalar FogSequentialForward.fog[61].dispatcher remoteJobs_class_1 87
scalar FogSequentialForward.fog[61].dispatcher localJobs_class_1 3634
scalar FogSequentialForward.fog[61].server[0] rho 0.5619785785675
scalar FogSequentialForward.fog[61].server[0] congestionRatio 0
scalar FogSequentialForward.fog[61].server[0] totalJobs 3634
scalar FogSequentialForward.fog[61].server[0] droppedJobsQueue 0
scalar FogSequentialForward.fog[61].server[0] droppedJobsTimout 0
scalar FogSequentialForward.fog[61].server[0] droppedJobsSLA 0
scalar FogSequentialForward.fog[61].server[0] droppedJobsTotal 0
scalar FogSequentialForward.fog[62].dispatcher localJobs 3571
scalar FogSequentialForward.fog[62].dispatcher internalJobs 3572
scalar FogSequentialForward.fog[62].dispatcher externalJobs 79
scalar FogSequentialForward.fog[62].dispatcher remoteJobs 80
scalar FogSequentialForward.fog[62].dispatcher probeQueries 0
scalar FogSequentialForward.fog[62].dispatcher probeAnswers 0
scalar FogSequentialForward.fog[62].dispatcher droppedJobsSLA 0
scalar FogSequentialForward.fog[62].dispatcher jobs_class_1 3651
scalar FogSequentialForward.fog[62].dispatcher remoteJobs_class_1 80
scalar FogSequentialForward.fog[62].dispatcher localJobs_class_1 3571
scalar FogSequentialForward.fog[62].server[0] rho 0.55234682559967
scalar FogSequentialForward.fog[62].server[0] congestionRatio 0
scalar FogSequentialForward.fog[62].server[0] totalJobs 3571
scalar FogSequentialForward.fog[62].server[0] droppedJobsQueue 0
scalar FogSequentialForward.fog[62].server[0] droppedJobsTimout 0
scalar FogSequentialForward.fog[62].server[0] droppedJobsSLA 0
scalar FogSequentialForward.fog[62].server[0] droppedJobsTotal 0
scalar FogSequentialForward.fog[63].dispatcher localJobs 3570
scalar FogSequentialForward.fog[63].dispatcher internalJobs 3571
scalar FogSequentialForward.fog[63].dispatcher externalJobs 83
scalar FogSequentialForward.fog[63].dispatcher remoteJobs 84
scalar FogSequentialForward.fog[63].dispatcher probeQueries 0
scalar FogSequentialForward.fog[63].dispatcher probeAnswers 0
scalar FogSequentialForward.fog[63].dispatcher droppedJobsSLA 0
scalar FogSequentialForward.fog[63].dispatcher jobs_class_1 3654
scalar FogSequentialForward.fog[63].dispatcher remoteJobs_class_1 84
scalar FogSequentialForward.fog[63].dispatcher localJobs_class_1 3570
scalar FogSequentialForward.fog[63].server[0] rho 0.55143660306931
scalar FogSequentialForward.fog[63].server[0] congestionRatio 0
scalar FogSequentialForward.fog[63].server[0] totalJobs 3570
scalar FogSequentialForward.fog[63].server[0] droppedJobsQueue 0
scalar FogSequentialForward.fog[63].server[0] droppedJobsTimout 0
scalar FogSequentialForward.fog[63].server[0] droppedJobsSLA 0
scalar FogSequentialForward.fog[63].server[0] droppedJobsTotal 0
scalar FogSequentialForward.fog[64].dispatcher localJobs 3561
scalar FogSequentialForward.fog[64].dispatcher internalJobs 3575
scalar FogSequentialForward.fog[64].dispatcher externalJobs 75
scalar FogSequentialForward.fog[64].dispatcher remoteJobs 89
scalar FogSequentialForward.fog[64].dispatcher probeQueries 0
scalar FogSequentialForward.fog[64].dispatcher probeAnswers 0
scalar FogSequentialForward.fog[64].dispatcher droppedJobsSLA 0
scalar FogSequentialForward.fog[64].dispatcher jobs_class_1 3650
scalar FogSequentialForward.fog[64].dispatcher remoteJobs_class_1 89
scalar FogSequentialForward.fog[64].dispatcher localJobs_class_1 3561
scalar FogSequentialForward.fog[64].server[0] rho 0.5506716966629
scalar FogSequentialForward.fog[64].server[0] congestionRatio 0
scalar FogSequentialForward.fog[64].server[0] totalJobs 3561
scalar FogSequentialForward.fog[64].server[0] droppedJobsQueue 0
scalar FogSequentialForward.fog[64].server[0] droppedJobsTimout 0
scalar FogSequentialForward.fog[64].server[0] droppedJobsSLA 0
scalar FogSequentialForward.fog[64].server[0] droppedJobsTotal 0
scalar FogSequentialForward.fog[65].dispatcher localJobs 3588
scalar FogSequentialForward.fog[65].dispatcher internalJobs 3568
scalar FogSequentialForward.fog[65].dispatcher externalJobs 78
scalar FogSequentialForward.fog[65].dispatcher remoteJobs 58
scalar FogSequentialForward.fog[65].dispatcher probeQueries 0
scalar FogSequentialForward.fog[65].dispatcher probeAnswers 0
scalar FogSequentialForward.fog[65].dispatcher droppedJobsSLA 0
scalar FogSequentialForward.fog[65].dispatcher jobs_class_1 3646
scalar FogSequentialForward.fog[65].dispatcher remoteJobs_class_1 58
scalar FogSequentialForward.fog[65].dispatcher localJobs_class_1 3588
scalar FogSequentialForward.fog[65].server[0] rho 0.55431205034256
scalar FogSequentialForward.fog[65].server[0] congestionRatio 0
scalar FogSequentialForward.fog[65].server[0] totalJobs 3588
scalar FogSequentialForward.fog[65].server[0] droppedJobsQueue 0
scalar FogSequentialForward.fog[65].server[0] droppedJobsTimout 0
scalar FogSequentialForward.fog[65].server[0] droppedJobsSLA 0
scalar FogSequentialForward.fog[65].server[0] droppedJobsTotal 0
scalar FogSequentialForward.fog[66].dispatcher localJobs 3609
scalar FogSequentialForward.fog[66].dispatcher internalJobs 3615
scalar FogSequentialForward.fog[66].dispatcher externalJobs 95
scalar FogSequentialForward.fog[66].dispatcher remoteJobs 101
scalar FogSequentialForward.fog[66].dispatcher probeQueries 0
scalar FogSequentialForward.fog[66].dispatcher probeAnswers 0
scalar FogSequentialForward.fog[66].dispatcher droppedJobsSLA 0
scalar FogSequentialForward.fog[66].dispatcher jobs_class_1 3710
scalar FogSequentialForward.fog[66].dispatcher remoteJobs_class_1 101
scalar FogSequentialForward.fog[66].dispatcher localJobs_class_1 3609
scalar FogSequentialForward.fog[66].server[0] rho 0.55815756320953
scalar FogSequentialForward.fog[66].server[0] congestionRatio 0
scalar FogSequentialForward.fog[66].server[0] totalJobs 3609
scalar FogSequentialForward.fog[66].server[0] droppedJobsQueue 0
scalar FogSequentialForward.fog[66].server[0] droppedJobsTimout 0
scalar FogSequentialForward.fog[66].server[0] droppedJobsSLA 0
scalar FogSequentialForward.fog[66].server[0] droppedJobsTotal 0
scalar FogSequentialForward.fog[67].dispatcher localJobs 3592
scalar FogSequentialForward.fog[67].dispatcher internalJobs 3601
scalar FogSequentialForward.fog[67].dispatcher externalJobs 80
scalar FogSequentialForward.fog[67].dispatcher remoteJobs 89
scalar FogSequentialForward.fog[67].dispatcher probeQueries 0
scalar FogSequentialForward.fog[67].dispatcher probeAnswers 0
scalar FogSequentialForward.fog[67].dispatcher droppedJobsSLA 0
scalar FogSequentialForward.fog[67].dispatcher jobs_class_1 3681
scalar FogSequentialForward.fog[67].dispatcher remoteJobs_class_1 89
scalar FogSequentialForward.fog[67].dispatcher localJobs_class_1 3592
scalar FogSequentialForward.fog[67].server[0] rho 0.55528163909912
scalar FogSequentialForward.fog[67].server[0] congestionRatio 0
scalar FogSequentialForward.fog[67].server[0] totalJobs 3592
scalar FogSequentialForward.fog[67].server[0] droppedJobsQueue 0
scalar FogSequentialForward.fog[67].server[0] droppedJobsTimout 0
scalar FogSequentialForward.fog[67].server[0] droppedJobsSLA 0
scalar FogSequentialForward.fog[67].server[0] droppedJobsTotal 0
scalar FogSequentialForward.fog[68].dispatcher localJobs 3613
scalar FogSequentialForward.fog[68].dispatcher internalJobs 3604
scalar FogSequentialForward.fog[68].dispatcher externalJobs 84
scalar FogSequentialForward.fog[68].dispatcher remoteJobs 75
scalar FogSequentialForward.fog[68].dispatcher probeQueries 0
scalar FogSequentialForward.fog[68].dispatcher probeAnswers 0
scalar FogSequentialForward.fog[68].dispatcher droppedJobsSLA 0
scalar FogSequentialForward.fog[68].dispatcher jobs_class_1 3688
scalar FogSequentialForward.fog[68].dispatcher remoteJobs_class_1 75
scalar FogSequentialForward.fog[68].dispatcher localJobs_class_1 3613
scalar FogSequentialForward.fog[68].server[0] rho 0.55867850780487
scalar FogSequentialForward.fog[68].server[0] congestionRatio 0
scalar FogSequentialForward.fog[68].server[0] totalJobs 3613
scalar FogSequentialForward.fog[68].server[0] droppedJobsQueue 0
scalar FogSequentialForward.fog[68].server[0] droppedJobsTimout 0
scalar FogSequentialForward.fog[68].server[0] droppedJobsSLA 0
scalar FogSequentialForward.fog[68].server[0] droppedJobsTotal 0
scalar FogSequentialForward.fog[69].dispatcher localJobs 3625
scalar FogSequentialForward.fog[69].dispatcher internalJobs 3613
scalar FogSequentialForward.fog[69].dispatcher externalJobs 82
scalar FogSequentialForward.fog[69].dispatcher remoteJobs 70
scalar FogSequentialForward.fog[69].dispatcher probeQueries 0
scalar FogSequentialForward.fog[69].dispatcher probeAnswers 0
scalar FogSequentialForward.fog[69].dispatcher droppedJobsSLA 0
scalar FogSequentialForward.fog[69].dispatcher jobs_class_1 3695
scalar FogSequentialForward.fog[69].dispatcher remoteJobs_class_1 70
scalar FogSequentialForward.fog[69].dispatcher localJobs_class_1 3625
scalar FogSequentialForward.fog[69].server[0] rho 0.56084150075912
scalar FogSequentialForward.fog[69].server[0] congestionRatio 0
scalar FogSequentialForward.fog[69].server[0] totalJobs 3625
scalar FogSequentialForward.fog[69].server[0] droppedJobsQueue 0
scalar FogSequentialForward.fog[69].server[0] droppedJobsTimout 0
scalar FogSequentialForward.fog[69].server[0] droppedJobsSLA 0
scalar FogSequentialForward.fog[69].server[0] droppedJobsTotal 0
scalar FogSequentialForward.fog[70].dispatcher localJobs 3577
scalar FogSequentialForward.fog[70].dispatcher internalJobs 3585
scalar FogSequentialForward.fog[70].dispatcher externalJobs 78
scalar FogSequentialForward.fog[70].dispatcher remoteJobs 86
scalar FogSequentialForward.fog[70].dispatcher probeQueries 0
scalar FogSequentialForward.fog[70].dispatcher probeAnswers 0
scalar FogSequentialForward.fog[70].dispatcher droppedJobsSLA 0
scalar FogSequentialForward.fog[70].dispatcher jobs_class_1 3663
scalar FogSequentialForward.fog[70].dispatcher remoteJobs_class_1 86
scalar FogSequentialForward.fog[70].dispatcher localJobs_class_1 3577
scalar FogSequentialForward.fog[70].server[0] rho 0.55316597223282
scalar FogSequentialForward.fog[70].server[0] congestionRatio 0
scalar FogSequentialForward.fog[70].server[0] totalJobs 3577
scalar FogSequentialForward.fog[70].server[0] droppedJobsQueue 0
scalar FogSequentialForward.fog[70].server[0] droppedJobsTimout 0
scalar FogSequentialForward.fog[70].server[0] droppedJobsSLA 0
scalar FogSequentialForward.fog[70].server[0] droppedJobsTotal 0
scalar FogSequentialForward.fog[71].dispatcher localJobs 3614
scalar FogSequentialForward.fog[71].dispatcher internalJobs 3602
scalar FogSequentialForward.fog[71].dispatcher externalJobs 75
scalar FogSequentialForward.fog[71].dispatcher remoteJobs 63
scalar FogSequentialForward.fog[71].dispatcher probeQueries 0
scalar FogSequentialForward.fog[71].dispatcher probeAnswers 0
scalar FogSequentialForward.fog[71].dispatcher droppedJobsSLA 0
scalar FogSequentialForward.fog[71].dispatcher jobs_class_1 3677
scalar FogSequentialForward.fog[71].dispatcher remoteJobs_class_1 63
scalar FogSequentialForward.fog[71].dispatcher localJobs_class_1 3614
scalar FogSequentialForward.fog[71].server[0] rho 0.55849158763885
scalar FogSequentialForward.fog[71].server[0] congestionRatio 0
scalar FogSequentialForward.fog[71].server[0] totalJobs 3614
scalar FogSequentialForward.fog[71].server[0] droppedJobsQueue 0
scalar FogSequentialForward.fog[71].server[0] droppedJobsTimout 0
scalar FogSequentialForward.fog[71].server[0] droppedJobsSLA 0
scalar FogSequentialForward.fog[71].server[0] droppedJobsTotal 0
scalar FogSequentialForward.fog[72].dispatcher localJobs 3567
scalar FogSequentialForward.fog[72].dispatcher internalJobs 3567
[...]
scalar FogSequentialForward.fog[82].server[0] droppedJobsQueue 0
scalar FogSequentialForward.fog[82].server[0] droppedJobsTimout 0
scalar FogSequentialForward.fog[82].server[0] droppedJobsSLA 0
scalar FogSequentialForward.fog[82].server[0] droppedJobsTotal 0
scalar FogSequentialForward.fog[83].dispatcher localJobs 3657
scalar FogSequentialForward.fog[83].dispatcher internalJobs 3625
scalar FogSequentialForward.fog[83].dispatcher externalJobs 90
scalar FogSequentialForward.fog[83].dispatcher remoteJobs 58
scalar FogSequentialForward.fog[83].dispatcher probeQueries 0
scalar FogSequentialForward.fog[83].dispatcher probeAnswers 0
scalar FogSequentialForward.fog[83].dispatcher droppedJobsSLA 0
scalar FogSequentialForward.fog[83].dispatcher jobs_class_1 3715
scalar FogSequentialForward.fog[83].dispatcher remoteJobs_class_1 58
scalar FogSequentialForward.fog[83].dispatcher localJobs_class_1 3657
scalar FogSequentialForward.fog[83].server[0] rho 0.56550633907318
scalar FogSequentialForward.fog[83].server[0] congestionRatio 0
scalar FogSequentialForward.fog[83].server[0] totalJobs 3657
scalar FogSequentialForward.fog[83].server[0] droppedJobsQueue 0
scalar FogSequentialForward.fog[83].server[0] droppedJobsTimout 0
scalar FogSequentialForward.fog[83].server[0] droppedJobsSLA 0
scalar FogSequentialForward.fog[83].server[0] droppedJobsTotal 0
scalar FogSequentialForward.fog[84].dispatcher localJobs 3665
scalar FogSequentialForward.fog[84].dispatcher internalJobs 3673
scalar FogSequentialForward.fog[84].dispatcher externalJobs 93
scalar FogSequentialForward.fog[84].dispatcher remoteJobs 101
scalar FogSequentialForward.fog[84].dispatcher probeQueries 0
scalar FogSequentialForward.fog[84].dispatcher probeAnswers 0
scalar FogSequentialForward.fog[84].dispatcher droppedJobsSLA 0
scalar FogSequentialForward.fog[84].dispatcher jobs_class_1 3766
scalar FogSequentialForward.fog[84].dispatcher remoteJobs_class_1 101
scalar FogSequentialForward.fog[84].dispatcher localJobs_class_1 3665
scalar FogSequentialForward.fog[84].server[0] rho 0.56681203842163
scalar FogSequentialForward.fog[84].server[0] congestionRatio 0
scalar FogSequentialForward.fog[84].server[0] totalJobs 3665
scalar FogSequentialForward.fog[84].server[0] droppedJobsQueue 0
scalar FogSequentialForward.fog[84].server[0] droppedJobsTimout 0
scalar FogSequentialForward.fog[84].server[0] droppedJobsSLA 0
scalar FogSequentialForward.fog[84].server[0] droppedJobsTotal 0
scalar FogSequentialForward.fog[85].dispatcher localJobs 3516
scalar FogSequentialForward.fog[85].dispatcher internalJobs 3525
scalar FogSequentialForward.fog[85].dispatcher externalJobs 80
scalar FogSequentialForward.fog[85].dispatcher remoteJobs 89
scalar FogSequentialForward.fog[85].dispatcher probeQueries 0
scalar FogSequentialForward.fog[85].dispatcher probeAnswers 0
scalar FogSequentialForward.fog[85].dispatcher droppedJobsSLA 0
scalar FogSequentialForward.fog[85].dispatcher jobs_class_1 3605
scalar FogSequentialForward.fog[85].dispatcher remoteJobs_class_1 89
scalar FogSequentialForward.fog[85].dispatcher localJobs_class_1 3516
scalar FogSequentialForward.fog[85].server[0] rho 0.54345172643661
scalar FogSequentialForward.fog[85].server[0] congestionRatio 0
scalar FogSequentialForward.fog[85].server[0] totalJobs 3516
scalar FogSequentialForward.fog[85].server[0] droppedJobsQueue 0
scalar FogSequentialForward.fog[85].server[0] droppedJobsTimout 0
scalar FogSequentialForward.fog[85].server[0] droppedJobsSLA 0
scalar FogSequentialForward.fog[85].server[0] droppedJobsTotal 0
scalar FogSequentialForward.fog[86].dispatcher localJobs 3625
scalar FogSequentialForward.fog[86].dispatcher internalJobs 3626
scalar FogSequentialForward.fog[86].dispatcher externalJobs 88
scalar FogSequentialForward.fog[86].dispatcher remoteJobs 89
scalar FogSequentialForward.fog[86].dispatcher probeQueries 0
scalar FogSequentialForward.fog[86].dispatcher probeAnswers 0
scalar FogSequentialForward.fog[86].dispatcher droppedJobsSLA 0
scalar FogSequentialForward.fog[86].dispatcher jobs_class_1 3714
scalar FogSequentialForward.fog[86].dispatcher remoteJobs_class_1 89
scalar FogSequentialForward.fog[86].dispatcher localJobs_class_1 3625
scalar FogSequentialForward.fog[86].server[0] rho 0.56046676635742
scalar FogSequentialForward.fog[86].server[0] congestionRatio 0
scalar FogSequentialForward.fog[86].server[0] totalJobs 3625
scalar FogSequentialForward.fog[86].server[0] droppedJobsQueue 0
scalar FogSequentialForward.fog[86].server[0] droppedJobsTimout 0
scalar FogSequentialForward.fog[86].server[0] droppedJobsSLA 0
scalar FogSequentialForward.fog[86].server[0] droppedJobsTotal 0
scalar FogSequentialForward.fog[87].dispatcher localJobs 3670
scalar FogSequentialForward.fog[87].dispatcher internalJobs 3684
scalar FogSequentialForward.fog[87].dispatcher externalJobs 73
scalar FogSequentialForward.fog[87].dispatcher remoteJobs 87
scalar FogSequentialForward.fog[87].dispatcher probeQueries 0
scalar FogSequentialForward.fog[87].dispatcher probeAnswers 0
scalar FogSequentialForward.fog[87].dispatcher droppedJobsSLA 0
scalar FogSequentialForward.fog[87].dispatcher jobs_class_1 3757
scalar FogSequentialForward.fog[87].dispatcher remoteJobs_class_1 87
scalar FogSequentialForward.fog[87].dispatcher localJobs_class_1 3670
scalar FogSequentialForward.fog[87].server[0] rho 0.56758922338486
scalar FogSequentialForward.fog[87].server[0] congestionRatio 0
scalar FogSequentialForward.fog[87].server[0] totalJobs 3670
scalar FogSequentialForward.fog[87].server[0] droppedJobsQueue 0
scalar FogSequentialForward.fog[87].server[0] droppedJobsTimout 0
scalar FogSequentialForward.fog[87].server[0] droppedJobsSLA 0
scalar FogSequentialForward.fog[87].server[0] droppedJobsTotal 0
scalar FogSequentialForward.fog[88].dispatcher localJobs 3594
scalar FogSequentialForward.fog[88].dispatcher internalJobs 3582
scalar FogSequentialForward.fog[88].dispatcher externalJobs 85
scalar FogSequentialForward.fog[88].dispatcher remoteJobs 73
scalar FogSequentialForward.fog[88].dispatcher probeQueries 0
scalar FogSequentialForward.fog[88].dispatcher probeAnswers 0
scalar FogSequentialForward.fog[88].dispatcher droppedJobsSLA 0
scalar FogSequentialForward.fog[88].dispatcher jobs_class_1 3667
scalar FogSequentialForward.fog[88].dispatcher remoteJobs_class_1 73
scalar FogSequentialForward.fog[88].dispatcher localJobs_class_1 3594
scalar FogSequentialForward.fog[88].server[0] rho 0.55563998222351
scalar FogSequentialForward.fog[88].server[0] congestionRatio 0
scalar FogSequentialForward.fog[88].server[0] totalJobs 3594
scalar FogSequentialForward.fog[88].server[0] droppedJobsQueue 0
scalar FogSequentialForward.fog[88].server[0] droppedJobsTimout 0
scalar FogSequentialForward.fog[88].server[0] droppedJobsSLA 0
scalar FogSequentialForward.fog[88].server[0] droppedJobsTotal 0
scalar FogSequentialForward.fog[89].dispatcher localJobs 3692
scalar FogSequentialForward.fog[89].dispatcher internalJobs 3688
scalar FogSequentialForward.fog[89].dispatcher externalJobs 100
scalar FogSequentialForward.fog[89].dispatcher remoteJobs 96
scalar FogSequentialForward.fog[89].dispatcher probeQueries 0
scalar FogSequentialForward.fog[89].dispatcher probeAnswers 0
scalar FogSequentialForward.fog[89].dispatcher droppedJobsSLA 0
scalar FogSequentialForward.fog[89].dispatcher jobs_class_1 3788
scalar FogSequentialForward.fog[89].dispatcher remoteJobs_class_1 96
scalar FogSequentialForward.fog[89].dispatcher localJobs_class_1 3692
scalar FogSequentialForward.fog[89].server[0] rho 0.57045805454254
scalar FogSequentialForward.fog[89].server[0] congestionRatio 0
scalar FogSequentialForward.fog[89].server[0] totalJobs 3692
scalar FogSequentialForward.fog[89].server[0] droppedJobsQueue 0
scalar FogSequentialForward.fog[89].server[0] droppedJobsTimout 0
scalar FogSequentialForward.fog[89].server[0] droppedJobsSLA 0
scalar FogSequentialForward.fog[89].server[0] droppedJobsTotal 0
scalar FogSequentialForward.fog[90].dispatcher localJobs 3573
scalar FogSequentialForward.fog[90].dispatcher internalJobs 3562
scalar FogSequentialForward.fog[90].dispatcher externalJobs 87
scalar FogSequentialForward.fog[90].dispatcher remoteJobs 76
scalar FogSequentialForward.fog[90].dispatcher probeQueries 0
scalar FogSequentialForward.fog[90].dispatcher probeAnswers 0
scalar FogSequentialForward.fog[90].dispatcher droppedJobsSLA 0
scalar FogSequentialForward.fog[90].dispatcher jobs_class_1 3649
scalar FogSequentialForward.fog[90].dispatcher remoteJobs_class_1 76
scalar FogSequentialForward.fog[90].dispatcher localJobs_class_1 3573
scalar FogSequentialForward.fog[90].server[0] rho 0.55312013626099
scalar FogSequentialForward.fog[90].server[0] congestionRatio 0
scalar FogSequentialForward.fog[90].server[0] totalJobs 3573
scalar FogSequentialForward.fog[90].server[0] droppedJobsQueue 0
scalar FogSequentialForward.fog[90].server[0] droppedJobsTimout 0
scalar FogSequentialForward.fog[90].server[0] droppedJobsSLA 0
scalar FogSequentialForward.fog[90].server[0] droppedJobsTotal 0
scalar FogSequentialForward.fog[91].dispatcher localJobs 3550
scalar FogSequentialForward.fog[91].dispatcher internalJobs 3528
scalar FogSequentialForward.fog[91].dispatcher externalJobs 84
scalar FogSequentialForward.fog[91].dispatcher remoteJobs 62
scalar FogSequentialForward.fog[91].dispatcher probeQueries 0
scalar FogSequentialForward.fog[91].dispatcher probeAnswers 0
scalar FogSequentialForward.fog[91].dispatcher droppedJobsSLA 0
scalar FogSequentialForward.fog[91].dispatcher jobs_class_1 3612
scalar FogSequentialForward.fog[91].dispatcher remoteJobs_class_1 62
scalar FogSequentialForward.fog[91].dispatcher localJobs_class_1 3550
scalar FogSequentialForward.fog[91].server[0] rho 0.54906582832336
scalar FogSequentialForward.fog[91].server[0] congestionRatio 0
scalar FogSequentialForward.fog[91].server[0] totalJobs 3550
scalar FogSequentialForward.fog[91].server[0] droppedJobsQueue 0
scalar FogSequentialForward.fog[91].server[0] droppedJobsTimout 0
scalar FogSequentialForward.fog[91].server[0] droppedJobsSLA 0
scalar FogSequentialForward.fog[91].server[0] droppedJobsTotal 0
scalar FogSequentialForward.fog[92].dispatcher localJobs 3606
scalar FogSequentialForward.fog[92].dispatcher internalJobs 3602
scalar FogSequentialForward.fog[92].dispatcher externalJobs 80
scalar FogSequentialForward.fog[92].dispatcher remoteJobs 76
scalar FogSequentialForward.fog[92].dispatcher probeQueries 0
scalar FogSequentialForward.fog[92].dispatcher probeAnswers 0
scalar FogSequentialForward.fog[92].dispatcher droppedJobsSLA 0
scalar FogSequentialForward.fog[92].dispatcher jobs_class_1 3682
scalar FogSequentialForward.fog[92].dispatcher remoteJobs_class_1 76
scalar FogSequentialForward.fog[92].dispatcher localJobs_class_1 3606
scalar FogSequentialForward.fog[92].server[0] rho 0.55761420726776
scalar FogSequentialForward.fog[92].server[0] congestionRatio 0
scalar FogSequentialForward.fog[92].server[0] totalJobs 3606
scalar FogSequentialForward.fog[92].server[0] droppedJobsQueue 0
scalar FogSequentialForward.fog[92].server[0] droppedJobsTimout 0
scalar FogSequentialForward.fog[92].server[0] droppedJobsSLA 0
scalar FogSequentialForward.fog[92].server[0] droppedJobsTotal 0
scalar FogSequentialForward.fog[93].dispatcher localJobs 3690
scalar FogSequentialForward.fog[93].dispatcher internalJobs 3707
scalar FogSequentialForward.fog[93].dispatcher externalJobs 83
scalar FogSequentialForward.fog[93].dispatcher remoteJobs 100
scalar FogSequentialForward.fog[93].dispatcher probeQueries 0
scalar FogSequentialForward.fog[93].dispatcher probeAnswers 0
scalar FogSequentialForward.fog[93].dispatcher droppedJobsSLA 0
scalar FogSequentialForward.fog[93].dispatcher jobs_class_1 3790
scalar FogSequentialForward.fog[93].dispatcher remoteJobs_class_1 100
scalar FogSequentialForward.fog[93].dispatcher localJobs_class_1 3690
scalar FogSequentialForward.fog[93].server[0] rho 0.56997811794281
scalar FogSequentialForward.fog[93].server[0] congestionRatio 0
scalar FogSequentialForward.fog[93].server[0] totalJobs 3690
scalar FogSequentialForward.fog[93].server[0] droppedJobsQueue 0
scalar FogSequentialForward.fog[93].server[0] droppedJobsTimout 0
scalar FogSequentialForward.fog[93].server[0] droppedJobsSLA 0
scalar FogSequentialForward.fog[93].server[0] droppedJobsTotal 0
scalar FogSequentialForward.fog[94].dispatcher localJobs 3718
scalar FogSequentialForward.fog[94].dispatcher internalJobs 3748
scalar FogSequentialForward.fog[94].dispatcher externalJobs 77
scalar FogSequentialForward.fog[94].dispatcher remoteJobs 107
scalar FogSequentialForward.fog[94].dispatcher probeQueries 0
scalar FogSequentialForward.fog[94].dispatcher probeAnswers 0
scalar FogSequentialForward.fog[94].dispatcher droppedJobsSLA 0
scalar FogSequentialForward.fog[94].dispatcher jobs_class_1 3825
scalar FogSequentialForward.fog[94].dispatcher remoteJobs_class_1 107
scalar FogSequentialForward.fog[94].dispatcher localJobs_class_1 3718
scalar FogSequentialForward.fog[94].server[0] rho 0.5747577548027
scalar FogSequentialForward.fog[94].server[0] congestionRatio 0
scalar FogSequentialForward.fog[94].server[0] totalJobs 3718
scalar FogSequentialForward.fog[94].server[0] droppedJobsQueue 0
scalar FogSequentialForward.fog[94].server[0] droppedJobsTimout 0
scalar FogSequentialForward.fog[94].server[0] droppedJobsSLA 0
scalar FogSequentialForward.fog[94].server[0] droppedJobsTotal 0
scalar FogSequentialForward.fog[95].dispatcher localJobs 3535
scalar FogSequentialForward.fog[95].dispatcher internalJobs 3545
scalar FogSequentialForward.fog[95].dispatcher externalJobs 70
scalar FogSequentialForward.fog[95].dispatcher remoteJobs 80
scalar FogSequentialForward.fog[95].dispatcher probeQueries 0
scalar FogSequentialForward.fog[95].dispatcher probeAnswers 0
scalar FogSequentialForward.fog[95].dispatcher droppedJobsSLA 0
scalar FogSequentialForward.fog[95].dispatcher jobs_class_1 3615
scalar FogSequentialForward.fog[95].dispatcher remoteJobs_class_1 80
scalar FogSequentialForward.fog[95].dispatcher localJobs_class_1 3535
scalar FogSequentialForward.fog[95].server[0] rho 0.54637634754181
scalar FogSequentialForward.fog[95].server[0] congestionRatio 0
scalar FogSequentialForward.fog[95].server[0] totalJobs 3535
scalar FogSequentialForward.fog[95].server[0] droppedJobsQueue 0
scalar FogSequentialForward.fog[95].server[0] droppedJobsTimout 0
scalar FogSequentialForward.fog[95].server[0] droppedJobsSLA 0
scalar FogSequentialForward.fog[95].server[0] droppedJobsTotal 0
scalar FogSequentialForward.fog[96].dispatcher localJobs 3475
scalar FogSequentialForward.fog[96].dispatcher internalJobs 3439
scalar FogSequentialForward.fog[96].dispatcher externalJobs 84
scalar FogSequentialForward.fog[96].dispatcher remoteJobs 48
scalar FogSequentialForward.fog[96].dispatcher probeQueries 0
scalar FogSequentialForward.fog[96].dispatcher probeAnswers 0
scalar FogSequentialForward.fog[96].dispatcher droppedJobsSLA 0
scalar FogSequentialForward.fog[96].dispatcher jobs_class_1 3523
scalar FogSequentialForward.fog[96].dispatcher remoteJobs_class_1 48
scalar FogSequentialForward.fog[96].dispatcher localJobs_class_1 3475
scalar FogSequentialForward.fog[96].server[0] rho 0.53754407167435
scalar FogSequentialForward.fog[96].server[0] congestionRatio 0
scalar FogSequentialForward.fog[96].server[0] totalJobs 3475
scalar FogSequentialForward.fog[96].server[0] droppedJobsQueue 0
scalar FogSequentialForward.fog[96].server[0] droppedJobsTimout 0
scalar FogSequentialForward.fog[96].server[0] droppedJobsSLA 0
scalar FogSequentialForward.fog[96].server[0] droppedJobsTotal 0
scalar FogSequentialForward.fog[97].dispatcher localJobs 3560
scalar FogSequentialForward.fog[97].dispatcher internalJobs 3578
scalar FogSequentialForward.fog[97].dispatcher externalJobs 70
scalar FogSequentialForward.fog[97].dispatcher remoteJobs 88
scalar FogSequentialForward.fog[97].dispatcher probeQueries 0
scalar FogSequentialForward.fog[97].dispatcher probeAnswers 0
scalar FogSequentialForward.fog[97].dispatcher droppedJobsSLA 0
scalar FogSequentialForward.fog[97].dispatcher jobs_class_1 3648
scalar FogSequentialForward.fog[97].dispatcher remoteJobs_class_1 88
scalar FogSequentialForward.fog[97].dispatcher localJobs_class_1 3560
scalar FogSequentialForward.fog[97].server[0] rho 0.55048012733459
scalar FogSequentialForward.fog[97].server[0] congestionRatio 0
scalar FogSequentialForward.fog[97].server[0] totalJobs 3560
scalar FogSequentialForward.fog[97].server[0] droppedJobsQueue 0
scalar FogSequentialForward.fog[97].server[0] droppedJobsTimout 0
scalar FogSequentialForward.fog[97].server[0] droppedJobsSLA 0
scalar FogSequentialForward.fog[97].server[0] droppedJobsTotal 0
scalar FogSequentialForward.fog[98].dispatcher localJobs 3607
scalar FogSequentialForward.fog[98].dispatcher internalJobs 3600
scalar FogSequentialForward.fog[98].dispatcher externalJobs 81
scalar FogSequentialForward.fog[98].dispatcher remoteJobs 74
scalar FogSequentialForward.fog[98].dispatcher probeQueries 0
scalar FogSequentialForward.fog[98].dispatcher probeAnswers 0
scalar FogSequentialForward.fog[98].dispatcher droppedJobsSLA 0
scalar FogSequentialForward.fog[98].dispatcher jobs_class_1 3681
scalar FogSequentialForward.fog[98].dispatcher remoteJobs_class_1 74
scalar FogSequentialForward.fog[98].dispatcher localJobs_class_1 3607
scalar FogSequentialForward.fog[98].server[0] rho 0.55800658464432
scalar FogSequentialForward.fog[98].server[0] congestionRatio 0
scalar FogSequentialForward.fog[98].server[0] totalJobs 3607
scalar FogSequentialForward.fog[98].server[0] droppedJobsQueue 0
scalar FogSequentialForward.fog[98].server[0] droppedJobsTimout 0
scalar FogSequentialForward.fog[98].server[0] droppedJobsSLA 0
scalar FogSequentialForward.fog[98].server[0] droppedJobsTotal 0
scalar FogSequentialForward.fog[99].dispatcher localJobs 3535
scalar FogSequentialForward.fog[99].dispatcher internalJobs 3568
scalar FogSequentialForward.fog[99].dispatcher externalJobs 63
scalar FogSequentialForward.fog[99].dispatcher remoteJobs 96
scalar FogSequentialForward.fog[99].dispatcher probeQueries 0
scalar FogSequentialForward.fog[99].dispatcher probeAnswers 0
scalar FogSequentialForward.fog[99].dispatcher droppedJobsSLA 0
scalar FogSequentialForward.fog[99].dispatcher jobs_class_1 3631
scalar FogSequentialForward.fog[99].dispatcher remoteJobs_class_1 96
scalar FogSequentialForward.fog[99].dispatcher localJobs_class_1 3535
scalar FogSequentialForward.fog[99].server[0] rho 0.54608559608459
scalar FogSequentialForward.fog[99].server[0] congestionRatio 0
scalar FogSequentialForward.fog[99].server[0] totalJobs 3535
scalar FogSequentialForward.fog[99].server[0] droppedJobsQueue 0
scalar FogSequentialForward.fog[99].server[0] droppedJobsTimout 0
scalar FogSequentialForward.fog[99].server[0] droppedJobsSLA 0
scalar FogSequentialForward.fog[99].server[0] droppedJobsTotal 0
scalar FogSequentialForward.sink avg_responseTime_1 2.5373632171388
scalar FogSequentialForward.sink p90_responseTime_1 1.521409619559
scalar FogSequentialForward.sink med_responseTime_1 1.521409619559
scalar FogSequentialForward.sink avg_delayTime_1 0
scalar FogSequentialForward.sink p90_delayTime_1 0
scalar FogSequentialForward.sink med_delayTime_1 0
scalar FogSequentialForward.sink avg_queuingTime_1 0.86694785598827
scalar FogSequentialForward.sink p90_queuingTime_1 0
scalar FogSequentialForward.sink med_queuingTime_1 0
scalar FogSequentialForward.sink avg_serviceTime_1 1.6700339828156
scalar FogSequentialForward.sink p90_serviceTime_1 1.500756621053
scalar FogSequentialForward.sink med_serviceTime_1 1.500756621053
scalar FogSequentialForward.sink avg_balancerTime_1 0.00038137833497267
scalar FogSequentialForward.sink p90_balancerTime_1 0
scalar FogSequentialForward.sink med_balancerTime_1 0
scalar FogSequentialForward.sink avg_balancerCount_1 1.0228370260463
scalar FogSequentialForward.sink p90_balancerCount_1 1
scalar FogSequentialForward.sink med_balancerCount_1 1

