version 2
run Fog-mul_001-rho_08-thr_2-1-20190713-02:26:45-21954
attr configname Fog-mul_001-rho_08-thr_2
attr datetime 20190713-02:26:45
attr experiment Fog-mul_001-rho_08-thr_2
attr inifile FogSequentialForward.ini
attr iterationvars ""
attr iterationvarsf ""
attr measurement ""
attr network FogSequentialForward
attr processid 21954
attr repetition 1
attr replication #1
attr resultdir results
attr runnumber 1
attr seedset 1
param FogSequentialForward.proctimeMul 0.01
param FogSequentialForward.rho 0.8
param FogSequentialForward.fog[*].dispatcher.thr 2
param FogSequentialForward.nSources 100
param FogSequentialForward.rho 0.9
param FogSequentialForward.proctimeMul 1.0
param FogSequentialForward.source[*].appId 1
param FogSequentialForward.source[*].realTime true
param FogSequentialForward.source[*].multiHop true
param FogSequentialForward.fog[*].nServers 1
param FogSequentialForward.fog[*].dispatcher.fanOut 1
param FogSequentialForward.fog[*].server[*].timeSlice -1s
param FogSequentialForward.fog[*].server[*].timeout -1s
param FogSequentialForward.fog[*].server[*].capacity 20
param FogSequentialForward.fog[*].server[*].fifo true
param FogSequentialForward.fog[*].server[*].maxServiceTime -1s
param FogSequentialForward.fog[*].dispatcher.thr 1

scalar FogSequentialForward.fog[0].dispatcher localJobs 1035050
scalar FogSequentialForward.fog[0].dispatcher internalJobs 1439694
scalar FogSequentialForward.fog[0].dispatcher externalJobs 8077257
scalar FogSequentialForward.fog[0].dispatcher remoteJobs 8076168
scalar FogSequentialForward.fog[0].dispatcher probeQueries 0
scalar FogSequentialForward.fog[0].dispatcher probeAnswers 0
scalar FogSequentialForward.fog[0].dispatcher droppedJobsSLA 405733
scalar FogSequentialForward.fog[0].dispatcher jobs_class_1 9516951
scalar FogSequentialForward.fog[0].dispatcher remoteJobs_class_1 8076168
scalar FogSequentialForward.fog[0].dispatcher localJobs_class_1 1035050
scalar FogSequentialForward.fog[0].dispatcher droppedJobsSLA_class_1 405733
scalar FogSequentialForward.fog[0].server[0] rho 0.99247533082962
scalar FogSequentialForward.fog[0].server[0] congestionRatio 0
scalar FogSequentialForward.fog[0].server[0] totalJobs 1035050
scalar FogSequentialForward.fog[0].server[0] droppedJobsQueue 3699
scalar FogSequentialForward.fog[0].server[0] droppedJobsTimout 0
scalar FogSequentialForward.fog[0].server[0] droppedJobsSLA 487635
scalar FogSequentialForward.fog[0].server[0] droppedJobsTotal 491334
scalar FogSequentialForward.fog[1].dispatcher localJobs 1035860
scalar FogSequentialForward.fog[1].dispatcher internalJobs 1441696
scalar FogSequentialForward.fog[1].dispatcher externalJobs 8079333
scalar FogSequentialForward.fog[1].dispatcher remoteJobs 8078673
scalar FogSequentialForward.fog[1].dispatcher probeQueries 0
scalar FogSequentialForward.fog[1].dispatcher probeAnswers 0
scalar FogSequentialForward.fog[1].dispatcher droppedJobsSLA 406496
scalar FogSequentialForward.fog[1].dispatcher jobs_class_1 9521029
scalar FogSequentialForward.fog[1].dispatcher remoteJobs_class_1 8078673
scalar FogSequentialForward.fog[1].dispatcher localJobs_class_1 1035860
scalar FogSequentialForward.fog[1].dispatcher droppedJobsSLA_class_1 406496
scalar FogSequentialForward.fog[1].server[0] rho 0.99246108531952
scalar FogSequentialForward.fog[1].server[0] congestionRatio 0
scalar FogSequentialForward.fog[1].server[0] totalJobs 1035860
scalar FogSequentialForward.fog[1].server[0] droppedJobsQueue 3699
scalar FogSequentialForward.fog[1].server[0] droppedJobsTimout 0
scalar FogSequentialForward.fog[1].server[0] droppedJobsSLA 488586
scalar FogSequentialForward.fog[1].server[0] droppedJobsTotal 492285
scalar FogSequentialForward.fog[2].dispatcher localJobs 1036635
scalar FogSequentialForward.fog[2].dispatcher internalJobs 1446665
scalar FogSequentialForward.fog[2].dispatcher externalJobs 8080452
scalar FogSequentialForward.fog[2].dispatcher remoteJobs 8084309
scalar FogSequentialForward.fog[2].dispatcher probeQueries 0
scalar FogSequentialForward.fog[2].dispatcher probeAnswers 0
scalar FogSequentialForward.fog[2].dispatcher droppedJobsSLA 406173
scalar FogSequentialForward.fog[2].dispatcher jobs_class_1 9527117
scalar FogSequentialForward.fog[2].dispatcher remoteJobs_class_1 8084309
scalar FogSequentialForward.fog[2].dispatcher localJobs_class_1 1036635
scalar FogSequentialForward.fog[2].dispatcher droppedJobsSLA_class_1 406173
scalar FogSequentialForward.fog[2].server[0] rho 0.99250334501266
scalar FogSequentialForward.fog[2].server[0] congestionRatio 0
scalar FogSequentialForward.fog[2].server[0] totalJobs 1036635
scalar FogSequentialForward.fog[2].server[0] droppedJobsQueue 3780
scalar FogSequentialForward.fog[2].server[0] droppedJobsTimout 0
scalar FogSequentialForward.fog[2].server[0] droppedJobsSLA 489654
scalar FogSequentialForward.fog[2].server[0] droppedJobsTotal 493434
scalar FogSequentialForward.fog[3].dispatcher localJobs 1036335
scalar FogSequentialForward.fog[3].dispatcher internalJobs 1443588
scalar FogSequentialForward.fog[3].dispatcher externalJobs 8075023
scalar FogSequentialForward.fog[3].dispatcher remoteJobs 8075973
scalar FogSequentialForward.fog[3].dispatcher probeQueries 0
scalar FogSequentialForward.fog[3].dispatcher probeAnswers 0
scalar FogSequentialForward.fog[3].dispatcher droppedJobsSLA 406303
scalar FogSequentialForward.fog[3].dispatcher jobs_class_1 9518611
scalar FogSequentialForward.fog[3].dispatcher remoteJobs_class_1 8075973
scalar FogSequentialForward.fog[3].dispatcher localJobs_class_1 1036335
scalar FogSequentialForward.fog[3].dispatcher droppedJobsSLA_class_1 406303
scalar FogSequentialForward.fog[3].server[0] rho 0.99248600006104
scalar FogSequentialForward.fog[3].server[0] congestionRatio 0
scalar FogSequentialForward.fog[3].server[0] totalJobs 1036335
scalar FogSequentialForward.fog[3].server[0] droppedJobsQueue 3670
scalar FogSequentialForward.fog[3].server[0] droppedJobsTimout 0
scalar FogSequentialForward.fog[3].server[0] droppedJobsSLA 489096
scalar FogSequentialForward.fog[3].server[0] droppedJobsTotal 492766
scalar FogSequentialForward.fog[4].dispatcher localJobs 1036211
scalar FogSequentialForward.fog[4].dispatcher internalJobs 1440295
scalar FogSequentialForward.fog[4].dispatcher externalJobs 8080746
scalar FogSequentialForward.fog[4].dispatcher remoteJobs 8078896
scalar FogSequentialForward.fog[4].dispatcher probeQueries 0
scalar FogSequentialForward.fog[4].dispatcher probeAnswers 0
scalar FogSequentialForward.fog[4].dispatcher droppedJobsSLA 405934
scalar FogSequentialForward.fog[4].dispatcher jobs_class_1 9521041
scalar FogSequentialForward.fog[4].dispatcher remoteJobs_class_1 8078896
scalar FogSequentialForward.fog[4].dispatcher localJobs_class_1 1036211
scalar FogSequentialForward.fog[4].dispatcher droppedJobsSLA_class_1 405934
scalar FogSequentialForward.fog[4].server[0] rho 0.99249774217606
scalar FogSequentialForward.fog[4].server[0] congestionRatio 0
scalar FogSequentialForward.fog[4].server[0] totalJobs 1036211
scalar FogSequentialForward.fog[4].server[0] droppedJobsQueue 3710
scalar FogSequentialForward.fog[4].server[0] droppedJobsTimout 0
scalar FogSequentialForward.fog[4].server[0] droppedJobsSLA 489598
scalar FogSequentialForward.fog[4].server[0] droppedJobsTotal 493308
scalar FogSequentialForward.fog[5].dispatcher localJobs 1035976
scalar FogSequentialForward.fog[5].dispatcher internalJobs 1445000
scalar FogSequentialForward.fog[5].dispatcher externalJobs 8083075
scalar FogSequentialForward.fog[5].dispatcher remoteJobs 8084466
scalar FogSequentialForward.fog[5].dispatcher probeQueries 0
scalar FogSequentialForward.fog[5].dispatcher probeAnswers 0
scalar FogSequentialForward.fog[5].dispatcher droppedJobsSLA 407633
scalar FogSequentialForward.fog[5].dispatcher jobs_class_1 9528075
scalar FogSequentialForward.fog[5].dispatcher remoteJobs_class_1 8084466
scalar FogSequentialForward.fog[5].dispatcher localJobs_class_1 1035976
scalar FogSequentialForward.fog[5].dispatcher droppedJobsSLA_class_1 407633
scalar FogSequentialForward.fog[5].server[0] rho 0.99249672889709
scalar FogSequentialForward.fog[5].server[0] congestionRatio 0
scalar FogSequentialForward.fog[5].server[0] totalJobs 1035976
scalar FogSequentialForward.fog[5].server[0] droppedJobsQueue 3847
scalar FogSequentialForward.fog[5].server[0] droppedJobsTimout 0
scalar FogSequentialForward.fog[5].server[0] droppedJobsSLA 488469
scalar FogSequentialForward.fog[5].server[0] droppedJobsTotal 492316
scalar FogSequentialForward.fog[6].dispatcher localJobs 1035698
scalar FogSequentialForward.fog[6].dispatcher internalJobs 1443496
scalar FogSequentialForward.fog[6].dispatcher externalJobs 8080686
scalar FogSequentialForward.fog[6].dispatcher remoteJobs 8081914
scalar FogSequentialForward.fog[6].dispatcher probeQueries 0
scalar FogSequentialForward.fog[6].dispatcher probeAnswers 0
scalar FogSequentialForward.fog[6].dispatcher droppedJobsSLA 406570
scalar FogSequentialForward.fog[6].dispatcher jobs_class_1 9524182
scalar FogSequentialForward.fog[6].dispatcher remoteJobs_class_1 8081914
scalar FogSequentialForward.fog[6].dispatcher localJobs_class_1 1035698
scalar FogSequentialForward.fog[6].dispatcher droppedJobsSLA_class_1 406570
scalar FogSequentialForward.fog[6].server[0] rho 0.99246728420258
scalar FogSequentialForward.fog[6].server[0] congestionRatio 0
scalar FogSequentialForward.fog[6].server[0] totalJobs 1035698
scalar FogSequentialForward.fog[6].server[0] droppedJobsQueue 3732
scalar FogSequentialForward.fog[6].server[0] droppedJobsTimout 0
scalar FogSequentialForward.fog[6].server[0] droppedJobsSLA 488722
scalar FogSequentialForward.fog[6].server[0] droppedJobsTotal 492454
scalar FogSequentialForward.fog[7].dispatcher localJobs 1035857
scalar FogSequentialForward.fog[7].dispatcher internalJobs 1444784
scalar FogSequentialForward.fog[7].dispatcher externalJobs 8078771
scalar FogSequentialForward.fog[7].dispatcher remoteJobs 8081478
scalar FogSequentialForward.fog[7].dispatcher probeQueries 0
scalar FogSequentialForward.fog[7].dispatcher probeAnswers 0
scalar FogSequentialForward.fog[7].dispatcher droppedJobsSLA 406220
scalar FogSequentialForward.fog[7].dispatcher jobs_class_1 9523555
scalar FogSequentialForward.fog[7].dispatcher remoteJobs_class_1 8081478
scalar FogSequentialForward.fog[7].dispatcher localJobs_class_1 1035857
scalar FogSequentialForward.fog[7].dispatcher droppedJobsSLA_class_1 406220
scalar FogSequentialForward.fog[7].server[0] rho 0.99246323108673
scalar FogSequentialForward.fog[7].server[0] congestionRatio 0
scalar FogSequentialForward.fog[7].server[0] totalJobs 1035857
scalar FogSequentialForward.fog[7].server[0] droppedJobsQueue 3715
scalar FogSequentialForward.fog[7].server[0] droppedJobsTimout 0
scalar FogSequentialForward.fog[7].server[0] droppedJobsSLA 488817
scalar FogSequentialForward.fog[7].server[0] droppedJobsTotal 492532
scalar FogSequentialForward.fog[8].dispatcher localJobs 1036434
scalar FogSequentialForward.fog[8].dispatcher internalJobs 1441421
scalar FogSequentialForward.fog[8].dispatcher externalJobs 8084381
scalar FogSequentialForward.fog[8].dispatcher remoteJobs 8082235
scalar FogSequentialForward.fog[8].dispatcher probeQueries 0
scalar FogSequentialForward.fog[8].dispatcher probeAnswers 0
scalar FogSequentialForward.fog[8].dispatcher droppedJobsSLA 407133
scalar FogSequentialForward.fog[8].dispatcher jobs_class_1 9525802
scalar FogSequentialForward.fog[8].dispatcher remoteJobs_class_1 8082235
scalar FogSequentialForward.fog[8].dispatcher localJobs_class_1 1036434
scalar FogSequentialForward.fog[8].dispatcher droppedJobsSLA_class_1 407133
scalar FogSequentialForward.fog[8].server[0] rho 0.99252951145172
scalar FogSequentialForward.fog[8].server[0] congestionRatio 0
scalar FogSequentialForward.fog[8].server[0] totalJobs 1036434
scalar FogSequentialForward.fog[8].server[0] droppedJobsQueue 3851
scalar FogSequentialForward.fog[8].server[0] droppedJobsTimout 0
scalar FogSequentialForward.fog[8].server[0] droppedJobsSLA 489251
scalar FogSequentialForward.fog[8].server[0] droppedJobsTotal 493102
scalar FogSequentialForward.fog[9].dispatcher localJobs 1036275
scalar FogSequentialForward.fog[9].dispatcher internalJobs 1443175
scalar FogSequentialForward.fog[9].dispatcher externalJobs 8084556
scalar FogSequentialForward.fog[9].dispatcher remoteJobs 8085271
scalar FogSequentialForward.fog[9].dispatcher probeQueries 0
scalar FogSequentialForward.fog[9].dispatcher probeAnswers 0
scalar FogSequentialForward.fog[9].dispatcher droppedJobsSLA 406185
scalar FogSequentialForward.fog[9].dispatcher jobs_class_1 9527731
scalar FogSequentialForward.fog[9].dispatcher remoteJobs_class_1 8085271
scalar FogSequentialForward.fog[9].dispatcher localJobs_class_1 1036275
scalar FogSequentialForward.fog[9].dispatcher droppedJobsSLA_class_1 406185
scalar FogSequentialForward.fog[9].server[0] rho 0.99252790212631
scalar FogSequentialForward.fog[9].server[0] congestionRatio 0
scalar FogSequentialForward.fog[9].server[0] totalJobs 1036275
scalar FogSequentialForward.fog[9].server[0] droppedJobsQueue 3910
scalar FogSequentialForward.fog[9].server[0] droppedJobsTimout 0
scalar FogSequentialForward.fog[9].server[0] droppedJobsSLA 489197
scalar FogSequentialForward.fog[9].server[0] droppedJobsTotal 493107
scalar FogSequentialForward.fog[10].dispatcher localJobs 1035543
scalar FogSequentialForward.fog[10].dispatcher internalJobs 1441998
scalar FogSequentialForward.fog[10].dispatcher externalJobs 8080683
scalar FogSequentialForward.fog[10].dispatcher remoteJobs 8079783
scalar FogSequentialForward.fog[10].dispatcher probeQueries 0
scalar FogSequentialForward.fog[10].dispatcher probeAnswers 0
scalar FogSequentialForward.fog[10].dispatcher droppedJobsSLA 407355
scalar FogSequentialForward.fog[10].dispatcher jobs_class_1 9522681
scalar FogSequentialForward.fog[10].dispatcher remoteJobs_class_1 8079783
scalar FogSequentialForward.fog[10].dispatcher localJobs_class_1 1035543
scalar FogSequentialForward.fog[10].dispatcher droppedJobsSLA_class_1 407355
scalar FogSequentialForward.fog[10].server[0] rho 0.99248135089874
scalar FogSequentialForward.fog[10].server[0] congestionRatio 0
scalar FogSequentialForward.fog[10].server[0] totalJobs 1035543
scalar FogSequentialForward.fog[10].server[0] droppedJobsQueue 3686
scalar FogSequentialForward.fog[10].server[0] droppedJobsTimout 0
scalar FogSequentialForward.fog[10].server[0] droppedJobsSLA 488551
scalar FogSequentialForward.fog[10].server[0] droppedJobsTotal 492237
scalar FogSequentialForward.fog[11].dispatcher localJobs 1035896
scalar FogSequentialForward.fog[11].dispatcher internalJobs 1442685
scalar FogSequentialForward.fog[11].dispatcher externalJobs 8080706
scalar FogSequentialForward.fog[11].dispatcher remoteJobs 8080311
scalar FogSequentialForward.fog[11].dispatcher probeQueries 0
scalar FogSequentialForward.fog[11].dispatcher probeAnswers 0
scalar FogSequentialForward.fog[11].dispatcher droppedJobsSLA 407184
scalar FogSequentialForward.fog[11].dispatcher jobs_class_1 9523391
scalar FogSequentialForward.fog[11].dispatcher remoteJobs_class_1 8080311
scalar FogSequentialForward.fog[11].dispatcher localJobs_class_1 1035896
scalar FogSequentialForward.fog[11].dispatcher droppedJobsSLA_class_1 407184
scalar FogSequentialForward.fog[11].server[0] rho 0.99246060848236
scalar FogSequentialForward.fog[11].server[0] congestionRatio 0
scalar FogSequentialForward.fog[11].server[0] totalJobs 1035896
scalar FogSequentialForward.fog[11].server[0] droppedJobsQueue 3826
scalar FogSequentialForward.fog[11].server[0] droppedJobsTimout 0
scalar FogSequentialForward.fog[11].server[0] droppedJobsSLA 488960
scalar FogSequentialForward.fog[11].server[0] droppedJobsTotal 492786
scalar FogSequentialForward.fog[12].dispatcher localJobs 1036309
scalar FogSequentialForward.fog[12].dispatcher internalJobs 1442064
scalar FogSequentialForward.fog[12].dispatcher externalJobs 8081363
scalar FogSequentialForward.fog[12].dispatcher remoteJobs 8079966
scalar FogSequentialForward.fog[12].dispatcher probeQueries 0
scalar FogSequentialForward.fog[12].dispatcher probeAnswers 0
scalar FogSequentialForward.fog[12].dispatcher droppedJobsSLA 407152
scalar FogSequentialForward.fog[12].dispatcher jobs_class_1 9523427
scalar FogSequentialForward.fog[12].dispatcher remoteJobs_class_1 8079966
scalar FogSequentialForward.fog[12].dispatcher localJobs_class_1 1036309
scalar FogSequentialForward.fog[12].dispatcher droppedJobsSLA_class_1 407152
scalar FogSequentialForward.fog[12].server[0] rho 0.99248534440994
scalar FogSequentialForward.fog[12].server[0] congestionRatio 0
scalar FogSequentialForward.fog[12].server[0] totalJobs 1036309
scalar FogSequentialForward.fog[12].server[0] droppedJobsQueue 3729
scalar FogSequentialForward.fog[12].server[0] droppedJobsTimout 0
scalar FogSequentialForward.fog[12].server[0] droppedJobsSLA 489045
scalar FogSequentialForward.fog[12].server[0] droppedJobsTotal 492774
scalar FogSequentialForward.fog[13].dispatcher localJobs 1035415
scalar FogSequentialForward.fog[13].dispatcher internalJobs 1443087
scalar FogSequentialForward.fog[13].dispatcher externalJobs 8083845
scalar FogSequentialForward.fog[13].dispatcher remoteJobs 8083372
scalar FogSequentialForward.fog[13].dispatcher probeQueries 0
scalar FogSequentialForward.fog[13].dispatcher probeAnswers 0
scalar FogSequentialForward.fog[13].dispatcher droppedJobsSLA 408145
scalar FogSequentialForward.fog[13].dispatcher jobs_class_1 9526932
scalar FogSequentialForward.fog[13].dispatcher remoteJobs_class_1 8083372
scalar FogSequentialForward.fog[13].dispatcher localJobs_class_1 1035415
scalar FogSequentialForward.fog[13].dispatcher droppedJobsSLA_class_1 408145
scalar FogSequentialForward.fog[13].server[0] rho 0.99249297380447
scalar FogSequentialForward.fog[13].server[0] congestionRatio 0
scalar FogSequentialForward.fog[13].server[0] totalJobs 1035415
scalar FogSequentialForward.fog[13].server[0] droppedJobsQueue 3765
scalar FogSequentialForward.fog[13].server[0] droppedJobsTimout 0
scalar FogSequentialForward.fog[13].server[0] droppedJobsSLA 488072
scalar FogSequentialForward.fog[13].server[0] droppedJobsTotal 491837
scalar FogSequentialForward.fog[14].dispatcher localJobs 1036755
scalar FogSequentialForward.fog[14].dispatcher internalJobs 1444612
scalar FogSequentialForward.fog[14].dispatcher externalJobs 8081338
scalar FogSequentialForward.fog[14].dispatcher remoteJobs 8082647
scalar FogSequentialForward.fog[14].dispatcher probeQueries 0
scalar FogSequentialForward.fog[14].dispatcher probeAnswers 0
scalar FogSequentialForward.fog[14].dispatcher droppedJobsSLA 406548
scalar FogSequentialForward.fog[14].dispatcher jobs_class_1 9525950
scalar FogSequentialForward.fog[14].dispatcher remoteJobs_class_1 8082647
scalar FogSequentialForward.fog[14].dispatcher localJobs_class_1 1036755
scalar FogSequentialForward.fog[14].dispatcher droppedJobsSLA_class_1 406548
scalar FogSequentialForward.fog[14].server[0] rho 0.99249160289764
scalar FogSequentialForward.fog[14].server[0] congestionRatio 0
scalar FogSequentialForward.fog[14].server[0] totalJobs 1036755
scalar FogSequentialForward.fog[14].server[0] droppedJobsQueue 3685
scalar FogSequentialForward.fog[14].server[0] droppedJobsTimout 0
scalar FogSequentialForward.fog[14].server[0] droppedJobsSLA 489877
scalar FogSequentialForward.fog[14].server[0] droppedJobsTotal 493562
scalar FogSequentialForward.fog[15].dispatcher localJobs 1036644
scalar FogSequentialForward.fog[15].dispatcher internalJobs 1441831
scalar FogSequentialForward.fog[15].dispatcher externalJobs 8086340
scalar FogSequentialForward.fog[15].dispatcher remoteJobs 8084408
scalar FogSequentialForward.fog[15].dispatcher probeQueries 0
scalar FogSequentialForward.fog[15].dispatcher probeAnswers 0
scalar FogSequentialForward.fog[15].dispatcher droppedJobsSLA 407119
scalar FogSequentialForward.fog[15].dispatcher jobs_class_1 9528171
scalar FogSequentialForward.fog[15].dispatcher remoteJobs_class_1 8084408
scalar FogSequentialForward.fog[15].dispatcher localJobs_class_1 1036644
scalar FogSequentialForward.fog[15].dispatcher droppedJobsSLA_class_1 407119
scalar FogSequentialForward.fog[15].server[0] rho 0.99249571561813
scalar FogSequentialForward.fog[15].server[0] congestionRatio 0
scalar FogSequentialForward.fog[15].server[0] totalJobs 1036644
scalar FogSequentialForward.fog[15].server[0] droppedJobsQueue 3842
scalar FogSequentialForward.fog[15].server[0] droppedJobsTimout 0
scalar FogSequentialForward.fog[15].server[0] droppedJobsSLA 489528
scalar FogSequentialForward.fog[15].server[0] droppedJobsTotal 493370
scalar FogSequentialForward.fog[16].dispatcher localJobs 1034768
scalar FogSequentialForward.fog[16].dispatcher internalJobs 1445372
scalar FogSequentialForward.fog[16].dispatcher externalJobs 8082236
scalar FogSequentialForward.fog[16].dispatcher remoteJobs 8085322
scalar FogSequentialForward.fog[16].dispatcher probeQueries 0
scalar FogSequentialForward.fog[16].dispatcher probeAnswers 0
scalar FogSequentialForward.fog[16].dispatcher droppedJobsSLA 407518
scalar FogSequentialForward.fog[16].dispatcher jobs_class_1 9527608
scalar FogSequentialForward.fog[16].dispatcher remoteJobs_class_1 8085322
scalar FogSequentialForward.fog[16].dispatcher localJobs_class_1 1034768
scalar FogSequentialForward.fog[16].dispatcher droppedJobsSLA_class_1 407518
scalar FogSequentialForward.fog[16].server[0] rho 0.99252110719681
scalar FogSequentialForward.fog[16].server[0] congestionRatio 0
scalar FogSequentialForward.fog[16].server[0] totalJobs 1034768
scalar FogSequentialForward.fog[16].server[0] droppedJobsQueue 3688
scalar FogSequentialForward.fog[16].server[0] droppedJobsTimout 0
scalar FogSequentialForward.fog[16].server[0] droppedJobsSLA 487313
scalar FogSequentialForward.fog[16].server[0] droppedJobsTotal 491001
scalar FogSequentialForward.fog[17].dispatcher localJobs 1035666
scalar FogSequentialForward.fog[17].dispatcher internalJobs 1442453
scalar FogSequentialForward.fog[17].dispatcher externalJobs 8078887
scalar FogSequentialForward.fog[17].dispatcher remoteJobs 8078949
scalar FogSequentialForward.fog[17].dispatcher probeQueries 0
scalar FogSequentialForward.fog[17].dispatcher probeAnswers 0
scalar FogSequentialForward.fog[17].dispatcher droppedJobsSLA 406725
scalar FogSequentialForward.fog[17].dispatcher jobs_class_1 9521340
scalar FogSequentialForward.fog[17].dispatcher remoteJobs_class_1 8078949
scalar FogSequentialForward.fog[17].dispatcher localJobs_class_1 1035666
scalar FogSequentialForward.fog[17].dispatcher droppedJobsSLA_class_1 406725
scalar FogSequentialForward.fog[17].server[0] rho 0.99249929189682
scalar FogSequentialForward.fog[17].server[0] congestionRatio 0
scalar FogSequentialForward.fog[17].server[0] totalJobs 1035666
scalar FogSequentialForward.fog[17].server[0] droppedJobsQueue 3840
scalar FogSequentialForward.fog[17].server[0] droppedJobsTimout 0
scalar FogSequentialForward.fog[17].server[0] droppedJobsSLA 488331
scalar FogSequentialForward.fog[17].server[0] droppedJobsTotal 492171
scalar FogSequentialForward.fog[18].dispatcher localJobs 1035168
scalar FogSequentialForward.fog[18].dispatcher internalJobs 1440820
scalar FogSequentialForward.fog[18].dispatcher externalJobs 8087595
scalar FogSequentialForward.fog[18].dispatcher remoteJobs 8086190
scalar FogSequentialForward.fog[18].dispatcher probeQueries 0
scalar FogSequentialForward.fog[18].dispatcher probeAnswers 0
scalar FogSequentialForward.fog[18].dispatcher droppedJobsSLA 407057
scalar FogSequentialForward.fog[18].dispatcher jobs_class_1 9528415
scalar FogSequentialForward.fog[18].dispatcher remoteJobs_class_1 8086190
scalar FogSequentialForward.fog[18].dispatcher localJobs_class_1 1035168
scalar FogSequentialForward.fog[18].dispatcher droppedJobsSLA_class_1 407057
scalar FogSequentialForward.fog[18].server[0] rho 0.9924658536911
scalar FogSequentialForward.fog[18].server[0] congestionRatio 0
scalar FogSequentialForward.fog[18].server[0] totalJobs 1035168
scalar FogSequentialForward.fog[18].server[0] droppedJobsQueue 3669
scalar FogSequentialForward.fog[18].server[0] droppedJobsTimout 0
scalar FogSequentialForward.fog[18].server[0] droppedJobsSLA 487791
scalar FogSequentialForward.fog[18].server[0] droppedJobsTotal 491460
scalar FogSequentialForward.fog[19].dispatcher localJobs 1035565
scalar FogSequentialForward.fog[19].dispatcher internalJobs 1443076
scalar FogSequentialForward.fog[19].dispatcher externalJobs 8081800
scalar FogSequentialForward.fog[19].dispatcher remoteJobs 8082010
scalar FogSequentialForward.fog[19].dispatcher probeQueries 0
scalar FogSequentialForward.fog[19].dispatcher probeAnswers 0
scalar FogSequentialForward.fog[19].dispatcher droppedJobsSLA 407301
scalar FogSequentialForward.fog[19].dispatcher jobs_class_1 9524876
scalar FogSequentialForward.fog[19].dispatcher remoteJobs_class_1 8082010
scalar FogSequentialForward.fog[19].dispatcher localJobs_class_1 1035565
scalar FogSequentialForward.fog[19].dispatcher droppedJobsSLA_class_1 407301
scalar FogSequentialForward.fog[19].server[0] rho 0.99247986078262
scalar FogSequentialForward.fog[19].server[0] congestionRatio 0
scalar FogSequentialForward.fog[19].server[0] totalJobs 1035565
scalar FogSequentialForward.fog[19].server[0] droppedJobsQueue 3726
scalar FogSequentialForward.fog[19].server[0] droppedJobsTimout 0
scalar FogSequentialForward.fog[19].server[0] droppedJobsSLA 488656
scalar FogSequentialForward.fog[19].server[0] droppedJobsTotal 492382
scalar FogSequentialForward.fog[20].dispatcher localJobs 1035179
scalar FogSequentialForward.fog[20].dispatcher internalJobs 1443745
scalar FogSequentialForward.fog[20].dispatcher externalJobs 8083181
scalar FogSequentialForward.fog[20].dispatcher remoteJobs 8085849
scalar FogSequentialForward.fog[20].dispatcher probeQueries 0
scalar FogSequentialForward.fog[20].dispatcher probeAnswers 0
scalar FogSequentialForward.fog[20].dispatcher droppedJobsSLA 405898
scalar FogSequentialForward.fog[20].dispatcher jobs_class_1 9526926
scalar FogSequentialForward.fog[20].dispatcher remoteJobs_class_1 8085849
scalar FogSequentialForward.fog[20].dispatcher localJobs_class_1 1035179
scalar FogSequentialForward.fog[20].dispatcher droppedJobsSLA_class_1 405898
scalar FogSequentialForward.fog[20].server[0] rho 0.99249309301376
scalar FogSequentialForward.fog[20].server[0] congestionRatio 0
scalar FogSequentialForward.fog[20].server[0] totalJobs 1035179
scalar FogSequentialForward.fog[20].server[0] droppedJobsQueue 3726
scalar FogSequentialForward.fog[20].server[0] droppedJobsTimout 0
scalar FogSequentialForward.fog[20].server[0] droppedJobsSLA 488488
scalar FogSequentialForward.fog[20].server[0] droppedJobsTotal 492214
scalar FogSequentialForward.fog[21].dispatcher localJobs 1034936
scalar FogSequentialForward.fog[21].dispatcher internalJobs 1442566
scalar FogSequentialForward.fog[21].dispatcher externalJobs 8081086
scalar FogSequentialForward.fog[21].dispatcher remoteJobs 8081692
scalar FogSequentialForward.fog[21].dispatcher probeQueries 0
scalar FogSequentialForward.fog[21].dispatcher probeAnswers 0
scalar FogSequentialForward.fog[21].dispatcher droppedJobsSLA 407024
scalar FogSequentialForward.fog[21].dispatcher jobs_class_1 9523652
scalar FogSequentialForward.fog[21].dispatcher remoteJobs_class_1 8081692
scalar FogSequentialForward.fog[21].dispatcher localJobs_class_1 1034936
scalar FogSequentialForward.fog[21].dispatcher droppedJobsSLA_class_1 407024
scalar FogSequentialForward.fog[21].server[0] rho 0.99242901802063
scalar FogSequentialForward.fog[21].server[0] congestionRatio 0
scalar FogSequentialForward.fog[21].server[0] totalJobs 1034936
scalar FogSequentialForward.fog[21].server[0] droppedJobsQueue 3746
scalar FogSequentialForward.fog[21].server[0] droppedJobsTimout 0
scalar FogSequentialForward.fog[21].server[0] droppedJobsSLA 487784
scalar FogSequentialForward.fog[21].server[0] droppedJobsTotal 491530
scalar FogSequentialForward.fog[22].dispatcher localJobs 1035812
scalar FogSequentialForward.fog[22].dispatcher internalJobs 1442496
scalar FogSequentialForward.fog[22].dispatcher externalJobs 8082226
scalar FogSequentialForward.fog[22].dispatcher remoteJobs 8082778
scalar FogSequentialForward.fog[22].dispatcher probeQueries 0
scalar FogSequentialForward.fog[22].dispatcher probeAnswers 0
scalar FogSequentialForward.fog[22].dispatcher droppedJobsSLA 406132
scalar FogSequentialForward.fog[22].dispatcher jobs_class_1 9524722
scalar FogSequentialForward.fog[22].dispatcher remoteJobs_class_1 8082778
scalar FogSequentialForward.fog[22].dispatcher localJobs_class_1 1035812
scalar FogSequentialForward.fog[22].dispatcher droppedJobsSLA_class_1 406132
scalar FogSequentialForward.fog[22].server[0] rho 0.99245327711105
scalar FogSequentialForward.fog[22].server[0] congestionRatio 0
scalar FogSequentialForward.fog[22].server[0] totalJobs 1035812
scalar FogSequentialForward.fog[22].server[0] droppedJobsQueue 3712
scalar FogSequentialForward.fog[22].server[0] droppedJobsTimout 0
scalar FogSequentialForward.fog[22].server[0] droppedJobsSLA 489001
scalar FogSequentialForward.fog[22].server[0] droppedJobsTotal 492713
scalar FogSequentialForward.fog[23].dispatcher localJobs 1036656
scalar FogSequentialForward.fog[23].dispatcher internalJobs 1443628
scalar FogSequentialForward.fog[23].dispatcher externalJobs 8077774
scalar FogSequentialForward.fog[23].dispatcher remoteJobs 8077751
scalar FogSequentialForward.fog[23].dispatcher probeQueries 0
scalar FogSequentialForward.fog[23].dispatcher probeAnswers 0
scalar FogSequentialForward.fog[23].dispatcher droppedJobsSLA 406995
scalar FogSequentialForward.fog[23].dispatcher jobs_class_1 9521402
scalar FogSequentialForward.fog[23].dispatcher remoteJobs_class_1 8077751
scalar FogSequentialForward.fog[23].dispatcher localJobs_class_1 1036656
scalar FogSequentialForward.fog[23].dispatcher droppedJobsSLA_class_1 406995
scalar FogSequentialForward.fog[23].server[0] rho 0.99245876073837
scalar FogSequentialForward.fog[23].server[0] congestionRatio 0
scalar FogSequentialForward.fog[23].server[0] totalJobs 1036656
scalar FogSequentialForward.fog[23].server[0] droppedJobsQueue 3742
scalar FogSequentialForward.fog[23].server[0] droppedJobsTimout 0
scalar FogSequentialForward.fog[23].server[0] droppedJobsSLA 489462
scalar FogSequentialForward.fog[23].server[0] droppedJobsTotal 493204
scalar FogSequentialForward.fog[24].dispatcher localJobs 1034883
scalar FogSequentialForward.fog[24].dispatcher internalJobs 1443112
scalar FogSequentialForward.fog[24].dispatcher externalJobs 8084049
scalar FogSequentialForward.fog[24].dispatcher remoteJobs 8086078
scalar FogSequentialForward.fog[24].dispatcher probeQueries 0
scalar FogSequentialForward.fog[24].dispatcher probeAnswers 0
scalar FogSequentialForward.fog[24].dispatcher droppedJobsSLA 406200
scalar FogSequentialForward.fog[24].dispatcher jobs_class_1 9527161
scalar FogSequentialForward.fog[24].dispatcher remoteJobs_class_1 8086078
scalar FogSequentialForward.fog[24].dispatcher localJobs_class_1 1034883
scalar FogSequentialForward.fog[24].dispatcher droppedJobsSLA_class_1 406200
scalar FogSequentialForward.fog[24].server[0] rho 0.99250376224518
scalar FogSequentialForward.fog[24].server[0] congestionRatio 0
scalar FogSequentialForward.fog[24].server[0] totalJobs 1034883
scalar FogSequentialForward.fog[24].server[0] droppedJobsQueue 3720
scalar FogSequentialForward.fog[24].server[0] droppedJobsTimout 0
scalar FogSequentialForward.fog[24].server[0] droppedJobsSLA 487940
scalar FogSequentialForward.fog[24].server[0] droppedJobsTotal 491660
scalar FogSequentialForward.fog[25].dispatcher localJobs 1035885
scalar FogSequentialForward.fog[25].dispatcher internalJobs 1443720
scalar FogSequentialForward.fog[25].dispatcher externalJobs 8082477
scalar FogSequentialForward.fog[25].dispatcher remoteJobs 8083822
scalar FogSequentialForward.fog[25].dispatcher probeQueries 0
scalar FogSequentialForward.fog[25].dispatcher probeAnswers 0
scalar FogSequentialForward.fog[25].dispatcher droppedJobsSLA 406490
scalar FogSequentialForward.fog[25].dispatcher jobs_class_1 9526197
scalar FogSequentialForward.fog[25].dispatcher remoteJobs_class_1 8083822
scalar FogSequentialForward.fog[25].dispatcher localJobs_class_1 1035885
scalar FogSequentialForward.fog[25].dispatcher droppedJobsSLA_class_1 406490
scalar FogSequentialForward.fog[25].server[0] rho 0.99249577522278
scalar FogSequentialForward.fog[25].server[0] congestionRatio 0
scalar FogSequentialForward.fog[25].server[0] totalJobs 1035885
scalar FogSequentialForward.fog[25].server[0] droppedJobsQueue 3742
scalar FogSequentialForward.fog[25].server[0] droppedJobsTimout 0
scalar FogSequentialForward.fog[25].server[0] droppedJobsSLA 488217
scalar FogSequentialForward.fog[25].server[0] droppedJobsTotal 491959
scalar FogSequentialForward.fog[26].dispatcher localJobs 1035668
scalar FogSequentialForward.fog[26].dispatcher internalJobs 1441303
scalar FogSequentialForward.fog[26].dispatcher externalJobs 8084967
scalar FogSequentialForward.fog[26].dispatcher remoteJobs 8084506
scalar FogSequentialForward.fog[26].dispatcher probeQueries 0
scalar FogSequentialForward.fog[26].dispatcher probeAnswers 0
scalar FogSequentialForward.fog[26].dispatcher droppedJobsSLA 406096
scalar FogSequentialForward.fog[26].dispatcher jobs_class_1 9526270
scalar FogSequentialForward.fog[26].dispatcher remoteJobs_class_1 8084506
scalar FogSequentialForward.fog[26].dispatcher localJobs_class_1 1035668
scalar FogSequentialForward.fog[26].dispatcher droppedJobsSLA_class_1 406096
scalar FogSequentialForward.fog[26].server[0] rho 0.9924852848053
scalar FogSequentialForward.fog[26].server[0] congestionRatio 0
scalar FogSequentialForward.fog[26].server[0] totalJobs 1035668
scalar FogSequentialForward.fog[26].server[0] droppedJobsQueue 3770
scalar FogSequentialForward.fog[26].server[0] droppedJobsTimout 0
scalar FogSequentialForward.fog[26].server[0] droppedJobsSLA 488427
scalar FogSequentialForward.fog[26].server[0] droppedJobsTotal 492197
scalar FogSequentialForward.fog[27].dispatcher localJobs 1034940
scalar FogSequentialForward.fog[27].dispatcher internalJobs 1440987
scalar FogSequentialForward.fog[27].dispatcher externalJobs 8080871
scalar FogSequentialForward.fog[27].dispatcher remoteJobs 8080058
scalar FogSequentialForward.fog[27].dispatcher probeQueries 0
scalar FogSequentialForward.fog[27].dispatcher probeAnswers 0
scalar FogSequentialForward.fog[27].dispatcher droppedJobsSLA 406860
scalar FogSequentialForward.fog[27].dispatcher jobs_class_1 9521858
scalar FogSequentialForward.fog[27].dispatcher remoteJobs_class_1 8080058
scalar FogSequentialForward.fog[27].dispatcher localJobs_class_1 1034940
scalar FogSequentialForward.fog[27].dispatcher droppedJobsSLA_class_1 406860
scalar FogSequentialForward.fog[27].server[0] rho 0.99251955747604
scalar FogSequentialForward.fog[27].server[0] congestionRatio 0
scalar FogSequentialForward.fog[27].server[0] totalJobs 1034940
scalar FogSequentialForward.fog[27].server[0] droppedJobsQueue 3687
scalar FogSequentialForward.fog[27].server[0] droppedJobsTimout 0
scalar FogSequentialForward.fog[27].server[0] droppedJobsSLA 487588
scalar FogSequentialForward.fog[27].server[0] droppedJobsTotal 491275
scalar FogSequentialForward.fog[28].dispatcher localJobs 1035957
scalar FogSequentialForward.fog[28].dispatcher internalJobs 1446074
scalar FogSequentialForward.fog[28].dispatcher externalJobs 8076645
scalar FogSequentialForward.fog[28].dispatcher remoteJobs 8080792
scalar FogSequentialForward.fog[28].dispatcher probeQueries 0
scalar FogSequentialForward.fog[28].dispatcher probeAnswers 0
scalar FogSequentialForward.fog[28].dispatcher droppedJobsSLA 405970
scalar FogSequentialForward.fog[28].dispatcher jobs_class_1 9522719
scalar FogSequentialForward.fog[28].dispatcher remoteJobs_class_1 8080792
scalar FogSequentialForward.fog[28].dispatcher localJobs_class_1 1035957
scalar FogSequentialForward.fog[28].dispatcher droppedJobsSLA_class_1 405970
scalar FogSequentialForward.fog[28].server[0] rho 0.99245101213455
scalar FogSequentialForward.fog[28].server[0] congestionRatio 0
scalar FogSequentialForward.fog[28].server[0] totalJobs 1035957
scalar FogSequentialForward.fog[28].server[0] droppedJobsQueue 3790
scalar FogSequentialForward.fog[28].server[0] droppedJobsTimout 0
scalar FogSequentialForward.fog[28].server[0] droppedJobsSLA 489042
scalar FogSequentialForward.fog[28].server[0] droppedJobsTotal 492832
scalar FogSequentialForward.fog[29].dispatcher localJobs 1035774
scalar FogSequentialForward.fog[29].dispatcher internalJobs 1444038
scalar FogSequentialForward.fog[29].dispatcher externalJobs 8081617
scalar FogSequentialForward.fog[29].dispatcher remoteJobs 8083290
scalar FogSequentialForward.fog[29].dispatcher probeQueries 0
scalar FogSequentialForward.fog[29].dispatcher probeAnswers 0
scalar FogSequentialForward.fog[29].dispatcher droppedJobsSLA 406591
scalar FogSequentialForward.fog[29].dispatcher jobs_class_1 9525655
scalar FogSequentialForward.fog[29].dispatcher remoteJobs_class_1 8083290
scalar FogSequentialForward.fog[29].dispatcher localJobs_class_1 1035774
scalar FogSequentialForward.fog[29].dispatcher droppedJobsSLA_class_1 406591
scalar FogSequentialForward.fog[29].server[0] rho 0.99247676134109
scalar FogSequentialForward.fog[29].server[0] congestionRatio 0
scalar FogSequentialForward.fog[29].server[0] totalJobs 1035774
scalar FogSequentialForward.fog[29].server[0] droppedJobsQueue 3730
scalar FogSequentialForward.fog[29].server[0] droppedJobsTimout 0
scalar FogSequentialForward.fog[29].server[0] droppedJobsSLA 488639
scalar FogSequentialForward.fog[29].server[0] droppedJobsTotal 492369
scalar FogSequentialForward.fog[30].dispatcher localJobs 1035866
scalar FogSequentialForward.fog[30].dispatcher internalJobs 1440396
scalar FogSequentialForward.fog[30].dispatcher externalJobs 8078582
scalar FogSequentialForward.fog[30].dispatcher remoteJobs 8076825
scalar FogSequentialForward.fog[30].dispatcher probeQueries 0
scalar FogSequentialForward.fog[30].dispatcher probeAnswers 0
scalar FogSequentialForward.fog[30].dispatcher droppedJobsSLA 406287
scalar FogSequentialForward.fog[30].dispatcher jobs_class_1 9518978
scalar FogSequentialForward.fog[30].dispatcher remoteJobs_class_1 8076825
scalar FogSequentialForward.fog[30].dispatcher localJobs_class_1 1035866
scalar FogSequentialForward.fog[30].dispatcher droppedJobsSLA_class_1 406287
scalar FogSequentialForward.fog[30].server[0] rho 0.99246734380722
scalar FogSequentialForward.fog[30].server[0] congestionRatio 0
scalar FogSequentialForward.fog[30].server[0] totalJobs 1035866
scalar FogSequentialForward.fog[30].server[0] droppedJobsQueue 3756
scalar FogSequentialForward.fog[30].server[0] droppedJobsTimout 0
scalar FogSequentialForward.fog[30].server[0] droppedJobsSLA 488840
scalar FogSequentialForward.fog[30].server[0] droppedJobsTotal 492596
scalar FogSequentialForward.fog[31].dispatcher localJobs 1036008
scalar FogSequentialForward.fog[31].dispatcher internalJobs 1441691
scalar FogSequentialForward.fog[31].dispatcher externalJobs 8074659
scalar FogSequentialForward.fog[31].dispatcher remoteJobs 8073576
scalar FogSequentialForward.fog[31].dispatcher probeQueries 0
scalar FogSequentialForward.fog[31].dispatcher probeAnswers 0
scalar FogSequentialForward.fog[31].dispatcher droppedJobsSLA 406766
scalar FogSequentialForward.fog[31].dispatcher jobs_class_1 9516350
scalar FogSequentialForward.fog[31].dispatcher remoteJobs_class_1 8073576
scalar FogSequentialForward.fog[31].dispatcher localJobs_class_1 1036008
scalar FogSequentialForward.fog[31].dispatcher droppedJobsSLA_class_1 406766
scalar FogSequentialForward.fog[31].server[0] rho 0.99243354797363
scalar FogSequentialForward.fog[31].server[0] congestionRatio 0
scalar FogSequentialForward.fog[31].server[0] totalJobs 1036008
scalar FogSequentialForward.fog[31].server[0] droppedJobsQueue 3798
scalar FogSequentialForward.fog[31].server[0] droppedJobsTimout 0
scalar FogSequentialForward.fog[31].server[0] droppedJobsSLA 488955
scalar FogSequentialForward.fog[31].server[0] droppedJobsTotal 492753
scalar FogSequentialForward.fog[32].dispatcher localJobs 1036253
scalar FogSequentialForward.fog[32].dispatcher internalJobs 1443522
scalar FogSequentialForward.fog[32].dispatcher externalJobs 8082924
scalar FogSequentialForward.fog[32].dispatcher remoteJobs 8082737
scalar FogSequentialForward.fog[32].dispatcher probeQueries 0
scalar FogSequentialForward.fog[32].dispatcher probeAnswers 0
scalar FogSequentialForward.fog[32].dispatcher droppedJobsSLA 407456
scalar FogSequentialForward.fog[32].dispatcher jobs_class_1 9526446
scalar FogSequentialForward.fog[32].dispatcher remoteJobs_class_1 8082737
scalar FogSequentialForward.fog[32].dispatcher localJobs_class_1 1036253
scalar FogSequentialForward.fog[32].dispatcher droppedJobsSLA_class_1 407456
scalar FogSequentialForward.fog[32].server[0] rho 0.99250310659409
scalar FogSequentialForward.fog[32].server[0] congestionRatio 0
scalar FogSequentialForward.fog[32].server[0] totalJobs 1036253
scalar FogSequentialForward.fog[32].server[0] droppedJobsQueue 3780
scalar FogSequentialForward.fog[32].server[0] droppedJobsTimout 0
scalar FogSequentialForward.fog[32].server[0] droppedJobsSLA 489241
scalar FogSequentialForward.fog[32].server[0] droppedJobsTotal 493021
scalar FogSequentialForward.fog[33].dispatcher localJobs 1034743
scalar FogSequentialForward.fog[33].dispatcher internalJobs 1440727
scalar FogSequentialForward.fog[33].dispatcher externalJobs 8075205
scalar FogSequentialForward.fog[33].dispatcher remoteJobs 8073494
scalar FogSequentialForward.fog[33].dispatcher probeQueries 0
scalar FogSequentialForward.fog[33].dispatcher probeAnswers 0
scalar FogSequentialForward.fog[33].dispatcher droppedJobsSLA 407695
scalar FogSequentialForward.fog[33].dispatcher jobs_class_1 9515932
scalar FogSequentialForward.fog[33].dispatcher remoteJobs_class_1 8073494
scalar FogSequentialForward.fog[33].dispatcher localJobs_class_1 1034743
scalar FogSequentialForward.fog[33].dispatcher droppedJobsSLA_class_1 407695
scalar FogSequentialForward.fog[33].server[0] rho 0.99244552850723
scalar FogSequentialForward.fog[33].server[0] congestionRatio 0
scalar FogSequentialForward.fog[33].server[0] totalJobs 1034743
scalar FogSequentialForward.fog[33].server[0] droppedJobsQueue 3740
scalar FogSequentialForward.fog[33].server[0] droppedJobsTimout 0
scalar FogSequentialForward.fog[33].server[0] droppedJobsSLA 487382
scalar FogSequentialForward.fog[33].server[0] droppedJobsTotal 491122
scalar FogSequentialForward.fog[34].dispatcher localJobs 1036255
scalar FogSequentialForward.fog[34].dispatcher internalJobs 1443090
scalar FogSequentialForward.fog[34].dispatcher externalJobs 8085959
scalar FogSequentialForward.fog[34].dispatcher remoteJobs 8085298
scalar FogSequentialForward.fog[34].dispatcher probeQueries 0
scalar FogSequentialForward.fog[34].dispatcher probeAnswers 0
scalar FogSequentialForward.fog[34].dispatcher droppedJobsSLA 407496
scalar FogSequentialForward.fog[34].dispatcher jobs_class_1 9529049
scalar FogSequentialForward.fog[34].dispatcher remoteJobs_class_1 8085298
scalar FogSequentialForward.fog[34].dispatcher localJobs_class_1 1036255
scalar FogSequentialForward.fog[34].dispatcher droppedJobsSLA_class_1 407496
scalar FogSequentialForward.fog[34].server[0] rho 0.99246430397034
scalar FogSequentialForward.fog[34].server[0] congestionRatio 0
scalar FogSequentialForward.fog[34].server[0] totalJobs 1036255
scalar FogSequentialForward.fog[34].server[0] droppedJobsQueue 3847
scalar FogSequentialForward.fog[34].server[0] droppedJobsTimout 0
scalar FogSequentialForward.fog[34].server[0] droppedJobsSLA 489240
scalar FogSequentialForward.fog[34].server[0] droppedJobsTotal 493087
scalar FogSequentialForward.fog[35].dispatcher localJobs 1035713
scalar FogSequentialForward.fog[35].dispatcher internalJobs 1442371
scalar FogSequentialForward.fog[35].dispatcher externalJobs 8081221
scalar FogSequentialForward.fog[35].dispatcher remoteJobs 8080758
scalar FogSequentialForward.fog[35].dispatcher probeQueries 0
scalar FogSequentialForward.fog[35].dispatcher probeAnswers 0
scalar FogSequentialForward.fog[35].dispatcher droppedJobsSLA 407121
scalar FogSequentialForward.fog[35].dispatcher jobs_class_1 9523592
scalar FogSequentialForward.fog[35].dispatcher remoteJobs_class_1 8080758
scalar FogSequentialForward.fog[35].dispatcher localJobs_class_1 1035713
scalar FogSequentialForward.fog[35].dispatcher droppedJobsSLA_class_1 407121
scalar FogSequentialForward.fog[35].server[0] rho 0.99252140522003
scalar FogSequentialForward.fog[35].server[0] congestionRatio 0
scalar FogSequentialForward.fog[35].server[0] totalJobs 1035713
scalar FogSequentialForward.fog[35].server[0] droppedJobsQueue 3737
scalar FogSequentialForward.fog[35].server[0] droppedJobsTimout 0
scalar FogSequentialForward.fog[35].server[0] droppedJobsSLA 488875
scalar FogSequentialForward.fog[35].server[0] droppedJobsTotal 492612
scalar FogSequentialForward.fog[36].dispatcher localJobs 1035557
scalar FogSequentialForward.fog[36].dispatcher internalJobs 1441978
scalar FogSequentialForward.fog[36].dispatcher externalJobs 8080602
scalar FogSequentialForward.fog[36].dispatcher remoteJobs 8079303
scalar FogSequentialForward.fog[36].dispatcher probeQueries 0
scalar FogSequentialForward.fog[36].dispatcher probeAnswers 0
scalar FogSequentialForward.fog[36].dispatcher droppedJobsSLA 407720
scalar FogSequentialForward.fog[36].dispatcher jobs_class_1 9522580
scalar FogSequentialForward.fog[36].dispatcher remoteJobs_class_1 8079303
scalar FogSequentialForward.fog[36].dispatcher localJobs_class_1 1035557
scalar FogSequentialForward.fog[36].dispatcher droppedJobsSLA_class_1 407720
scalar FogSequentialForward.fog[36].server[0] rho 0.99242973327637
scalar FogSequentialForward.fog[36].server[0] congestionRatio 0
scalar FogSequentialForward.fog[36].server[0] totalJobs 1035557
scalar FogSequentialForward.fog[36].server[0] droppedJobsQueue 3747
scalar FogSequentialForward.fog[36].server[0] droppedJobsTimout 0
scalar FogSequentialForward.fog[36].server[0] droppedJobsSLA 487902
scalar FogSequentialForward.fog[36].server[0] droppedJobsTotal 491649
scalar FogSequentialForward.fog[37].dispatcher localJobs 1035635
scalar FogSequentialForward.fog[37].dispatcher internalJobs 1443061
scalar FogSequentialForward.fog[37].dispatcher externalJobs 8083721
scalar FogSequentialForward.fog[37].dispatcher remoteJobs 8085419
scalar FogSequentialForward.fog[37].dispatcher probeQueries 0
scalar FogSequentialForward.fog[37].dispatcher probeAnswers 0
scalar FogSequentialForward.fog[37].dispatcher droppedJobsSLA 405728
scalar FogSequentialForward.fog[37].dispatcher jobs_class_1 9526782
scalar FogSequentialForward.fog[37].dispatcher remoteJobs_class_1 8085419
scalar FogSequentialForward.fog[37].dispatcher localJobs_class_1 1035635
scalar FogSequentialForward.fog[37].dispatcher droppedJobsSLA_class_1 405728
scalar FogSequentialForward.fog[37].server[0] rho 0.99250954389572
scalar FogSequentialForward.fog[37].server[0] congestionRatio 0
scalar FogSequentialForward.fog[37].server[0] totalJobs 1035635
scalar FogSequentialForward.fog[37].server[0] droppedJobsQueue 3716
scalar FogSequentialForward.fog[37].server[0] droppedJobsTimout 0
scalar FogSequentialForward.fog[37].server[0] droppedJobsSLA 488501
scalar FogSequentialForward.fog[37].server[0] droppedJobsTotal 492217
scalar FogSequentialForward.fog[38].dispatcher localJobs 1036638
scalar FogSequentialForward.fog[38].dispatcher internalJobs 1443014
scalar FogSequentialForward.fog[38].dispatcher externalJobs 8082080
scalar FogSequentialForward.fog[38].dispatcher remoteJobs 8081295
scalar FogSequentialForward.fog[38].dispatcher probeQueries 0
scalar FogSequentialForward.fog[38].dispatcher probeAnswers 0
scalar FogSequentialForward.fog[38].dispatcher droppedJobsSLA 407161
scalar FogSequentialForward.fog[38].dispatcher jobs_class_1 9525094
scalar FogSequentialForward.fog[38].dispatcher remoteJobs_class_1 8081295
scalar FogSequentialForward.fog[38].dispatcher localJobs_class_1 1036638
scalar FogSequentialForward.fog[38].dispatcher droppedJobsSLA_class_1 407161
scalar FogSequentialForward.fog[38].server[0] rho 0.99250829219818
scalar FogSequentialForward.fog[38].server[0] congestionRatio 0
scalar FogSequentialForward.fog[38].server[0] totalJobs 1036638
scalar FogSequentialForward.fog[38].server[0] droppedJobsQueue 3807
scalar FogSequentialForward.fog[38].server[0] droppedJobsTimout 0
scalar FogSequentialForward.fog[38].server[0] droppedJobsSLA 489972
scalar FogSequentialForward.fog[38].server[0] droppedJobsTotal 493779
scalar FogSequentialForward.fog[39].dispatcher localJobs 1036803
scalar FogSequentialForward.fog[39].dispatcher internalJobs 1442494
scalar FogSequentialForward.fog[39].dispatcher externalJobs 8086122
scalar FogSequentialForward.fog[39].dispatcher remoteJobs 8085064
scalar FogSequentialForward.fog[39].dispatcher probeQueries 0
scalar FogSequentialForward.fog[39].dispatcher probeAnswers 0
scalar FogSequentialForward.fog[39].dispatcher droppedJobsSLA 406749
scalar FogSequentialForward.fog[39].dispatcher jobs_class_1 9528616
scalar FogSequentialForward.fog[39].dispatcher remoteJobs_class_1 8085064
scalar FogSequentialForward.fog[39].dispatcher localJobs_class_1 1036803
scalar FogSequentialForward.fog[39].dispatcher droppedJobsSLA_class_1 406749
scalar FogSequentialForward.fog[39].server[0] rho 0.99249660968781
scalar FogSequentialForward.fog[39].server[0] congestionRatio 0
scalar FogSequentialForward.fog[39].server[0] totalJobs 1036803
scalar FogSequentialForward.fog[39].server[0] droppedJobsQueue 3726
scalar FogSequentialForward.fog[39].server[0] droppedJobsTimout 0
scalar FogSequentialForward.fog[39].server[0] droppedJobsSLA 489415
scalar FogSequentialForward.fog[39].server[0] droppedJobsTotal 493141
scalar FogSequentialForward.fog[40].dispatcher localJobs 1034874
scalar FogSequentialForward.fog[40].dispatcher internalJobs 1443866
scalar FogSequentialForward.fog[40].dispatcher externalJobs 8080424
scalar FogSequentialForward.fog[40].dispatcher remoteJobs 8083036
scalar FogSequentialForward.fog[40].dispatcher probeQueries 0
scalar FogSequentialForward.fog[40].dispatcher probeAnswers 0
scalar FogSequentialForward.fog[40].dispatcher droppedJobsSLA 406380
scalar FogSequentialForward.fog[40].dispatcher jobs_class_1 9524290
scalar FogSequentialForward.fog[40].dispatcher remoteJobs_class_1 8083036
scalar FogSequentialForward.fog[40].dispatcher localJobs_class_1 1034874
scalar FogSequentialForward.fog[40].dispatcher droppedJobsSLA_class_1 406380
scalar FogSequentialForward.fog[40].server[0] rho 0.99250167608261
scalar FogSequentialForward.fog[40].server[0] congestionRatio 0
scalar FogSequentialForward.fog[40].server[0] totalJobs 1034874
scalar FogSequentialForward.fog[40].server[0] droppedJobsQueue 3754
scalar FogSequentialForward.fog[40].server[0] droppedJobsTimout 0
scalar FogSequentialForward.fog[40].server[0] droppedJobsSLA 487924
scalar FogSequentialForward.fog[40].server[0] droppedJobsTotal 491678
scalar FogSequentialForward.fog[41].dispatcher localJobs 1036223
scalar FogSequentialForward.fog[41].dispatcher internalJobs 1443625
scalar FogSequentialForward.fog[41].dispatcher externalJobs 8080420
scalar FogSequentialForward.fog[41].dispatcher remoteJobs 8079782
scalar FogSequentialForward.fog[41].dispatcher probeQueries 0
scalar FogSequentialForward.fog[41].dispatcher probeAnswers 0
scalar FogSequentialForward.fog[41].dispatcher droppedJobsSLA 408040
scalar FogSequentialForward.fog[41].dispatcher jobs_class_1 9524045
scalar FogSequentialForward.fog[41].dispatcher remoteJobs_class_1 8079782
scalar FogSequentialForward.fog[41].dispatcher localJobs_class_1 1036223
scalar FogSequentialForward.fog[41].dispatcher droppedJobsSLA_class_1 408040
scalar FogSequentialForward.fog[41].server[0] rho 0.99246156215668
scalar FogSequentialForward.fog[41].server[0] congestionRatio 0
scalar FogSequentialForward.fog[41].server[0] totalJobs 1036223
scalar FogSequentialForward.fog[41].server[0] droppedJobsQueue 3764
scalar FogSequentialForward.fog[41].server[0] droppedJobsTimout 0
scalar FogSequentialForward.fog[41].server[0] droppedJobsSLA 489674
scalar FogSequentialForward.fog[41].server[0] droppedJobsTotal 493438
scalar FogSequentialForward.fog[42].dispatcher localJobs 1036410
scalar FogSequentialForward.fog[42].dispatcher internalJobs 1443648
scalar FogSequentialForward.fog[42].dispatcher externalJobs 8080029
scalar FogSequentialForward.fog[42].dispatcher remoteJobs 8079771
scalar FogSequentialForward.fog[42].dispatcher probeQueries 0
scalar FogSequentialForward.fog[42].dispatcher probeAnswers 0
scalar FogSequentialForward.fog[42].dispatcher droppedJobsSLA 407496
scalar FogSequentialForward.fog[42].dispatcher jobs_class_1 9523677
scalar FogSequentialForward.fog[42].dispatcher remoteJobs_class_1 8079771
scalar FogSequentialForward.fog[42].dispatcher localJobs_class_1 1036410
scalar FogSequentialForward.fog[42].dispatcher droppedJobsSLA_class_1 407496
scalar FogSequentialForward.fog[42].server[0] rho 0.99247151613235
scalar FogSequentialForward.fog[42].server[0] congestionRatio 0
scalar FogSequentialForward.fog[42].server[0] totalJobs 1036410
scalar FogSequentialForward.fog[42].server[0] droppedJobsQueue 3799
scalar FogSequentialForward.fog[42].server[0] droppedJobsTimout 0
scalar FogSequentialForward.fog[42].server[0] droppedJobsSLA 489085
scalar FogSequentialForward.fog[42].server[0] droppedJobsTotal 492884
scalar FogSequentialForward.fog[43].dispatcher localJobs 1036314
scalar FogSequentialForward.fog[43].dispatcher internalJobs 1443180
scalar FogSequentialForward.fog[43].dispatcher externalJobs 8085748
scalar FogSequentialForward.fog[43].dispatcher remoteJobs 8085245
scalar FogSequentialForward.fog[43].dispatcher probeQueries 0
scalar FogSequentialForward.fog[43].dispatcher probeAnswers 0
scalar FogSequentialForward.fog[43].dispatcher droppedJobsSLA 407369
scalar FogSequentialForward.fog[43].dispatcher jobs_class_1 9528928
scalar FogSequentialForward.fog[43].dispatcher remoteJobs_class_1 8085245
scalar FogSequentialForward.fog[43].dispatcher localJobs_class_1 1036314
scalar FogSequentialForward.fog[43].dispatcher droppedJobsSLA_class_1 407369
scalar FogSequentialForward.fog[43].server[0] rho 0.99248468875885
scalar FogSequentialForward.fog[43].server[0] congestionRatio 0
scalar FogSequentialForward.fog[43].server[0] totalJobs 1036314
scalar FogSequentialForward.fog[43].server[0] droppedJobsQueue 3747
scalar FogSequentialForward.fog[43].server[0] droppedJobsTimout 0
scalar FogSequentialForward.fog[43].server[0] droppedJobsSLA 489848
scalar FogSequentialForward.fog[43].server[0] droppedJobsTotal 493595
scalar FogSequentialForward.fog[44].dispatcher localJobs 1036341
scalar FogSequentialForward.fog[44].dispatcher internalJobs 1441619
scalar FogSequentialForward.fog[44].dispatcher externalJobs 8084859
scalar FogSequentialForward.fog[44].dispatcher remoteJobs 8081839
scalar FogSequentialForward.fog[44].dispatcher probeQueries 0
scalar FogSequentialForward.fog[44].dispatcher probeAnswers 0
scalar FogSequentialForward.fog[44].dispatcher droppedJobsSLA 408298
scalar FogSequentialForward.fog[44].dispatcher jobs_class_1 9526478
scalar FogSequentialForward.fog[44].dispatcher remoteJobs_class_1 8081839
scalar FogSequentialForward.fog[44].dispatcher localJobs_class_1 1036341
scalar FogSequentialForward.fog[44].dispatcher droppedJobsSLA_class_1 408298
scalar FogSequentialForward.fog[44].server[0] rho 0.99247485399246
scalar FogSequentialForward.fog[44].server[0] congestionRatio 0
scalar FogSequentialForward.fog[44].server[0] totalJobs 1036341
scalar FogSequentialForward.fog[44].server[0] droppedJobsQueue 3879
scalar FogSequentialForward.fog[44].server[0] droppedJobsTimout 0
scalar FogSequentialForward.fog[44].server[0] droppedJobsSLA 489318
scalar FogSequentialForward.fog[44].server[0] droppedJobsTotal 493197
scalar FogSequentialForward.fog[45].dispatcher localJobs 1035573
scalar FogSequentialForward.fog[45].dispatcher internalJobs 1440214
scalar FogSequentialForward.fog[45].dispatcher externalJobs 8083009
scalar FogSequentialForward.fog[45].dispatcher remoteJobs 8081176
scalar FogSequentialForward.fog[45].dispatcher probeQueries 0
scalar FogSequentialForward.fog[45].dispatcher probeAnswers 0
scalar FogSequentialForward.fog[45].dispatcher droppedJobsSLA 406474
scalar FogSequentialForward.fog[45].dispatcher jobs_class_1 9523223
scalar FogSequentialForward.fog[45].dispatcher remoteJobs_class_1 8081176
scalar FogSequentialForward.fog[45].dispatcher localJobs_class_1 1035573
scalar FogSequentialForward.fog[45].dispatcher droppedJobsSLA_class_1 406474
scalar FogSequentialForward.fog[45].server[0] rho 0.99246656894684
scalar FogSequentialForward.fog[45].server[0] congestionRatio 0
scalar FogSequentialForward.fog[45].server[0] totalJobs 1035573
scalar FogSequentialForward.fog[45].server[0] droppedJobsQueue 3714
scalar FogSequentialForward.fog[45].server[0] droppedJobsTimout 0
scalar FogSequentialForward.fog[45].server[0] droppedJobsSLA 488462
scalar FogSequentialForward.fog[45].server[0] droppedJobsTotal 492176
scalar FogSequentialForward.fog[46].dispatcher localJobs 1036583
scalar FogSequentialForward.fog[46].dispatcher internalJobs 1441977
scalar FogSequentialForward.fog[46].dispatcher externalJobs 8088408
scalar FogSequentialForward.fog[46].dispatcher remoteJobs 8087250
scalar FogSequentialForward.fog[46].dispatcher probeQueries 0
scalar FogSequentialForward.fog[46].dispatcher probeAnswers 0
scalar FogSequentialForward.fog[46].dispatcher droppedJobsSLA 406552
scalar FogSequentialForward.fog[46].dispatcher jobs_class_1 9530385
scalar FogSequentialForward.fog[46].dispatcher remoteJobs_class_1 8087250
scalar FogSequentialForward.fog[46].dispatcher localJobs_class_1 1036583
scalar FogSequentialForward.fog[46].dispatcher droppedJobsSLA_class_1 406552
scalar FogSequentialForward.fog[46].server[0] rho 0.99251663684845
scalar FogSequentialForward.fog[46].server[0] congestionRatio 0
scalar FogSequentialForward.fog[46].server[0] totalJobs 1036583
scalar FogSequentialForward.fog[46].server[0] droppedJobsQueue 3796
scalar FogSequentialForward.fog[46].server[0] droppedJobsTimout 0
scalar FogSequentialForward.fog[46].server[0] droppedJobsSLA 489923
scalar FogSequentialForward.fog[46].server[0] droppedJobsTotal 493719
scalar FogSequentialForward.fog[47].dispatcher localJobs 1036890
scalar FogSequentialForward.fog[47].dispatcher internalJobs 1440977
scalar FogSequentialForward.fog[47].dispatcher externalJobs 8080582
scalar FogSequentialForward.fog[47].dispatcher remoteJobs 8077542
scalar FogSequentialForward.fog[47].dispatcher probeQueries 0
scalar FogSequentialForward.fog[47].dispatcher probeAnswers 0
scalar FogSequentialForward.fog[47].dispatcher droppedJobsSLA 407127
scalar FogSequentialForward.fog[47].dispatcher jobs_class_1 9521559
scalar FogSequentialForward.fog[47].dispatcher remoteJobs_class_1 8077542
scalar FogSequentialForward.fog[47].dispatcher localJobs_class_1 1036890
scalar FogSequentialForward.fog[47].dispatcher droppedJobsSLA_class_1 407127
scalar FogSequentialForward.fog[47].server[0] rho 0.99249887466431
scalar FogSequentialForward.fog[47].server[0] congestionRatio 0
scalar FogSequentialForward.fog[47].server[0] totalJobs 1036890
scalar FogSequentialForward.fog[47].server[0] droppedJobsQueue 3883
scalar FogSequentialForward.fog[47].server[0] droppedJobsTimout 0
scalar FogSequentialForward.fog[47].server[0] droppedJobsSLA 489589
scalar FogSequentialForward.fog[47].server[0] droppedJobsTotal 493472
scalar FogSequentialForward.fog[48].dispatcher localJobs 1035606
scalar FogSequentialForward.fog[48].dispatcher internalJobs 1442997
scalar FogSequentialForward.fog[48].dispatcher externalJobs 8084172
scalar FogSequentialForward.fog[48].dispatcher remoteJobs 8085054
scalar FogSequentialForward.fog[48].dispatcher probeQueries 0
scalar FogSequentialForward.fog[48].dispatcher probeAnswers 0
scalar FogSequentialForward.fog[48].dispatcher droppedJobsSLA 406509
scalar FogSequentialForward.fog[48].dispatcher jobs_class_1 9527169
scalar FogSequentialForward.fog[48].dispatcher remoteJobs_class_1 8085054
scalar FogSequentialForward.fog[48].dispatcher localJobs_class_1 1035606
scalar FogSequentialForward.fog[48].dispatcher droppedJobsSLA_class_1 406509
scalar FogSequentialForward.fog[48].server[0] rho 0.99248790740967
scalar FogSequentialForward.fog[48].server[0] congestionRatio 0
scalar FogSequentialForward.fog[48].server[0] totalJobs 1035606
scalar FogSequentialForward.fog[48].server[0] droppedJobsQueue 3686
scalar FogSequentialForward.fog[48].server[0] droppedJobsTimout 0
scalar FogSequentialForward.fog[48].server[0] droppedJobsSLA 488622
scalar FogSequentialForward.fog[48].server[0] droppedJobsTotal 492308
scalar FogSequentialForward.fog[49].dispatcher localJobs 1037041
scalar FogSequentialForward.fog[49].dispatcher internalJobs 1443203
scalar FogSequentialForward.fog[49].dispatcher externalJobs 8089102
scalar FogSequentialForward.fog[49].dispatcher remoteJobs 8087709
scalar FogSequentialForward.fog[49].dispatcher probeQueries 0
scalar FogSequentialForward.fog[49].dispatcher probeAnswers 0
scalar FogSequentialForward.fog[49].dispatcher droppedJobsSLA 407555
scalar FogSequentialForward.fog[49].dispatcher jobs_class_1 9532305
scalar FogSequentialForward.fog[49].dispatcher remoteJobs_class_1 8087709
scalar FogSequentialForward.fog[49].dispatcher localJobs_class_1 1037041
scalar FogSequentialForward.fog[49].dispatcher droppedJobsSLA_class_1 407555
scalar FogSequentialForward.fog[49].server[0] rho 0.99249655008316
scalar FogSequentialForward.fog[49].server[0] congestionRatio 0
scalar FogSequentialForward.fog[49].server[0] totalJobs 1037041
scalar FogSequentialForward.fog[49].server[0] droppedJobsQueue 3826
scalar FogSequentialForward.fog[49].server[0] droppedJobsTimout 0
scalar FogSequentialForward.fog[49].server[0] droppedJobsSLA 489809
scalar FogSequentialForward.fog[49].server[0] droppedJobsTotal 493635
scalar FogSequentialForward.fog[50].dispatcher localJobs 1036647
scalar FogSequentialForward.fog[50].dispatcher internalJobs 1442806
scalar FogSequentialForward.fog[50].dispatcher externalJobs 8077841
scalar FogSequentialForward.fog[50].dispatcher remoteJobs 8076609
scalar FogSequentialForward.fog[50].dispatcher probeQueries 0
scalar FogSequentialForward.fog[50].dispatcher probeAnswers 0
scalar FogSequentialForward.fog[50].dispatcher droppedJobsSLA 407391
scalar FogSequentialForward.fog[50].dispatcher jobs_class_1 9520647
scalar FogSequentialForward.fog[50].dispatcher remoteJobs_class_1 8076609
scalar FogSequentialForward.fog[50].dispatcher localJobs_class_1 1036647
scalar FogSequentialForward.fog[50].dispatcher droppedJobsSLA_class_1 407391
scalar FogSequentialForward.fog[50].server[0] rho 0.99245232343674
scalar FogSequentialForward.fog[50].server[0] congestionRatio 0
scalar FogSequentialForward.fog[50].server[0] totalJobs 1036647
scalar FogSequentialForward.fog[50].server[0] droppedJobsQueue 3782
scalar FogSequentialForward.fog[50].server[0] droppedJobsTimout 0
scalar FogSequentialForward.fog[50].server[0] droppedJobsSLA 489093
scalar FogSequentialForward.fog[50].server[0] droppedJobsTotal 492875
scalar FogSequentialForward.fog[51].dispatcher localJobs 1035894
scalar FogSequentialForward.fog[51].dispatcher internalJobs 1442082
scalar FogSequentialForward.fog[51].dispatcher externalJobs 8076755
scalar FogSequentialForward.fog[51].dispatcher remoteJobs 8076345
scalar FogSequentialForward.fog[51].dispatcher probeQueries 0
scalar FogSequentialForward.fog[51].dispatcher probeAnswers 0
scalar FogSequentialForward.fog[51].dispatcher droppedJobsSLA 406598
scalar FogSequentialForward.fog[51].dispatcher jobs_class_1 9518837
scalar FogSequentialForward.fog[51].dispatcher remoteJobs_class_1 8076345
scalar FogSequentialForward.fog[51].dispatcher localJobs_class_1 1035894
scalar FogSequentialForward.fog[51].dispatcher droppedJobsSLA_class_1 406598
scalar FogSequentialForward.fog[51].server[0] rho 0.99244731664658
scalar FogSequentialForward.fog[51].server[0] congestionRatio 0
scalar FogSequentialForward.fog[51].server[0] totalJobs 1035894
scalar FogSequentialForward.fog[51].server[0] droppedJobsQueue 3740
scalar FogSequentialForward.fog[51].server[0] droppedJobsTimout 0
scalar FogSequentialForward.fog[51].server[0] droppedJobsSLA 488767
scalar FogSequentialForward.fog[51].server[0] droppedJobsTotal 492507
scalar FogSequentialForward.fog[52].dispatcher localJobs 1036256
scalar FogSequentialForward.fog[52].dispatcher internalJobs 1444288
scalar FogSequentialForward.fog[52].dispatcher externalJobs 8085221
scalar FogSequentialForward.fog[52].dispatcher remoteJobs 8087604
scalar FogSequentialForward.fog[52].dispatcher probeQueries 0
scalar FogSequentialForward.fog[52].dispatcher probeAnswers 0
scalar FogSequentialForward.fog[52].dispatcher droppedJobsSLA 405649
scalar FogSequentialForward.fog[52].dispatcher jobs_class_1 9529509
scalar FogSequentialForward.fog[52].dispatcher remoteJobs_class_1 8087604
scalar FogSequentialForward.fog[52].dispatcher localJobs_class_1 1036256
scalar FogSequentialForward.fog[52].dispatcher droppedJobsSLA_class_1 405649
scalar FogSequentialForward.fog[52].server[0] rho 0.99246692657471
scalar FogSequentialForward.fog[52].server[0] congestionRatio 0
scalar FogSequentialForward.fog[52].server[0] totalJobs 1036256
scalar FogSequentialForward.fog[52].server[0] droppedJobsQueue 3793
scalar FogSequentialForward.fog[52].server[0] droppedJobsTimout 0
scalar FogSequentialForward.fog[52].server[0] droppedJobsSLA 489004
scalar FogSequentialForward.fog[52].server[0] droppedJobsTotal 492797
scalar FogSequentialForward.fog[53].dispatcher localJobs 1035358
scalar FogSequentialForward.fog[53].dispatcher internalJobs 1444038
scalar FogSequentialForward.fog[53].dispatcher externalJobs 8083210
scalar FogSequentialForward.fog[53].dispatcher remoteJobs 8085592
scalar FogSequentialForward.fog[53].dispatcher probeQueries 0
scalar FogSequentialForward.fog[53].dispatcher probeAnswers 0
scalar FogSequentialForward.fog[53].dispatcher droppedJobsSLA 406298
scalar FogSequentialForward.fog[53].dispatcher jobs_class_1 9527248
scalar FogSequentialForward.fog[53].dispatcher remoteJobs_class_1 8085592
scalar FogSequentialForward.fog[53].dispatcher localJobs_class_1 1035358
scalar FogSequentialForward.fog[53].dispatcher droppedJobsSLA_class_1 406298
scalar FogSequentialForward.fog[53].server[0] rho 0.99249517917633
scalar FogSequentialForward.fog[53].server[0] congestionRatio 0
scalar FogSequentialForward.fog[53].server[0] totalJobs 1035358
scalar FogSequentialForward.fog[53].server[0] droppedJobsQueue 3695
scalar FogSequentialForward.fog[53].server[0] droppedJobsTimout 0
scalar FogSequentialForward.fog[53].server[0] droppedJobsSLA 488391
scalar FogSequentialForward.fog[53].server[0] droppedJobsTotal 492086
scalar FogSequentialForward.fog[54].dispatcher localJobs 1036680
scalar FogSequentialForward.fog[54].dispatcher internalJobs 1441148
scalar FogSequentialForward.fog[54].dispatcher externalJobs 8084133
scalar FogSequentialForward.fog[54].dispatcher remoteJobs 8081723
scalar FogSequentialForward.fog[54].dispatcher probeQueries 0
scalar FogSequentialForward.fog[54].dispatcher probeAnswers 0
scalar FogSequentialForward.fog[54].dispatcher droppedJobsSLA 406878
scalar FogSequentialForward.fog[54].dispatcher jobs_class_1 9525281
scalar FogSequentialForward.fog[54].dispatcher remoteJobs_class_1 8081723
scalar FogSequentialForward.fog[54].dispatcher localJobs_class_1 1036680
scalar FogSequentialForward.fog[54].dispatcher droppedJobsSLA_class_1 406878
scalar FogSequentialForward.fog[54].server[0] rho 0.99249285459518
scalar FogSequentialForward.fog[54].server[0] congestionRatio 0
scalar FogSequentialForward.fog[54].server[0] totalJobs 1036680
scalar FogSequentialForward.fog[54].server[0] droppedJobsQueue 3834
scalar FogSequentialForward.fog[54].server[0] droppedJobsTimout 0
scalar FogSequentialForward.fog[54].server[0] droppedJobsSLA 489682
scalar FogSequentialForward.fog[54].server[0] droppedJobsTotal 493516
scalar FogSequentialForward.fog[55].dispatcher localJobs 1036431
scalar FogSequentialForward.fog[55].dispatcher internalJobs 1443356
scalar FogSequentialForward.fog[55].dispatcher externalJobs 8083279
scalar FogSequentialForward.fog[55].dispatcher remoteJobs 8083309
scalar FogSequentialForward.fog[55].dispatcher probeQueries 0
scalar FogSequentialForward.fog[55].dispatcher probeAnswers 0
scalar FogSequentialForward.fog[55].dispatcher droppedJobsSLA 406895
scalar FogSequentialForward.fog[55].dispatcher jobs_class_1 9526635
scalar FogSequentialForward.fog[55].dispatcher remoteJobs_class_1 8083309
scalar FogSequentialForward.fog[55].dispatcher localJobs_class_1 1036431
scalar FogSequentialForward.fog[55].dispatcher droppedJobsSLA_class_1 406895
scalar FogSequentialForward.fog[55].server[0] rho 0.99246847629547
scalar FogSequentialForward.fog[55].server[0] congestionRatio 0
scalar FogSequentialForward.fog[55].server[0] totalJobs 1036431
scalar FogSequentialForward.fog[55].server[0] droppedJobsQueue 3756
scalar FogSequentialForward.fog[55].server[0] droppedJobsTimout 0
scalar FogSequentialForward.fog[55].server[0] droppedJobsSLA 489261
scalar FogSequentialForward.fog[55].server[0] droppedJobsTotal 493017
scalar FogSequentialForward.fog[56].dispatcher localJobs 1036426
scalar FogSequentialForward.fog[56].dispatcher internalJobs 1440676
scalar FogSequentialForward.fog[56].dispatcher externalJobs 8081255
scalar FogSequentialForward.fog[56].dispatcher remoteJobs 8078238
scalar FogSequentialForward.fog[56].dispatcher probeQueries 0
scalar FogSequentialForward.fog[56].dispatcher probeAnswers 0
scalar FogSequentialForward.fog[56].dispatcher droppedJobsSLA 407267
scalar FogSequentialForward.fog[56].dispatcher jobs_class_1 9521931
scalar FogSequentialForward.fog[56].dispatcher remoteJobs_class_1 8078238
scalar FogSequentialForward.fog[56].dispatcher localJobs_class_1 1036426
scalar FogSequentialForward.fog[56].dispatcher droppedJobsSLA_class_1 407267
scalar FogSequentialForward.fog[56].server[0] rho 0.9925149679184
scalar FogSequentialForward.fog[56].server[0] congestionRatio 0
scalar FogSequentialForward.fog[56].server[0] totalJobs 1036426
scalar FogSequentialForward.fog[56].server[0] droppedJobsQueue 3834
scalar FogSequentialForward.fog[56].server[0] droppedJobsTimout 0
scalar FogSequentialForward.fog[56].server[0] droppedJobsSLA 489358
scalar FogSequentialForward.fog[56].server[0] droppedJobsTotal 493192
scalar FogSequentialForward.fog[57].dispatcher localJobs 1034980
scalar FogSequentialForward.fog[57].dispatcher internalJobs 1443957
scalar FogSequentialForward.fog[57].dispatcher externalJobs 8085066
scalar FogSequentialForward.fog[57].dispatcher remoteJobs 8086666
scalar FogSequentialForward.fog[57].dispatcher probeQueries 0
scalar FogSequentialForward.fog[57].dispatcher probeAnswers 0
scalar FogSequentialForward.fog[57].dispatcher droppedJobsSLA 407377
scalar FogSequentialForward.fog[57].dispatcher jobs_class_1 9529023
scalar FogSequentialForward.fog[57].dispatcher remoteJobs_class_1 8086666
scalar FogSequentialForward.fog[57].dispatcher localJobs_class_1 1034980
scalar FogSequentialForward.fog[57].dispatcher droppedJobsSLA_class_1 407377
scalar FogSequentialForward.fog[57].server[0] rho 0.99245893955231
scalar FogSequentialForward.fog[57].server[0] congestionRatio 0
scalar FogSequentialForward.fog[57].server[0] totalJobs 1034980
scalar FogSequentialForward.fog[57].server[0] droppedJobsQueue 3705
scalar FogSequentialForward.fog[57].server[0] droppedJobsTimout 0
scalar FogSequentialForward.fog[57].server[0] droppedJobsSLA 487783
scalar FogSequentialForward.fog[57].server[0] droppedJobsTotal 491488
scalar FogSequentialForward.fog[58].dispatcher localJobs 1035929
scalar FogSequentialForward.fog[58].dispatcher internalJobs 1443253
scalar FogSequentialForward.fog[58].dispatcher externalJobs 8083359
scalar FogSequentialForward.fog[58].dispatcher remoteJobs 8083146
scalar FogSequentialForward.fog[58].dispatcher probeQueries 0
scalar FogSequentialForward.fog[58].dispatcher probeAnswers 0
scalar FogSequentialForward.fog[58].dispatcher droppedJobsSLA 407537
scalar FogSequentialForward.fog[58].dispatcher jobs_class_1 9526612
scalar FogSequentialForward.fog[58].dispatcher remoteJobs_class_1 8083146
scalar FogSequentialForward.fog[58].dispatcher localJobs_class_1 1035929
scalar FogSequentialForward.fog[58].dispatcher droppedJobsSLA_class_1 407537
scalar FogSequentialForward.fog[58].server[0] rho 0.99245119094849
scalar FogSequentialForward.fog[58].server[0] congestionRatio 0
scalar FogSequentialForward.fog[58].server[0] totalJobs 1035929
scalar FogSequentialForward.fog[58].server[0] droppedJobsQueue 3768
scalar FogSequentialForward.fog[58].server[0] droppedJobsTimout 0
scalar FogSequentialForward.fog[58].server[0] droppedJobsSLA 489060
scalar FogSequentialForward.fog[58].server[0] droppedJobsTotal 492828
scalar FogSequentialForward.fog[59].dispatcher localJobs 1035593
scalar FogSequentialForward.fog[59].dispatcher internalJobs 1443783
scalar FogSequentialForward.fog[59].dispatcher externalJobs 8077002
scalar FogSequentialForward.fog[59].dispatcher remoteJobs 8078326
scalar FogSequentialForward.fog[59].dispatcher probeQueries 0
scalar FogSequentialForward.fog[59].dispatcher probeAnswers 0
scalar FogSequentialForward.fog[59].dispatcher droppedJobsSLA 406866
scalar FogSequentialForward.fog[59].dispatcher jobs_class_1 9520785
scalar FogSequentialForward.fog[59].dispatcher remoteJobs_class_1 8078326
scalar FogSequentialForward.fog[59].dispatcher localJobs_class_1 1035593
scalar FogSequentialForward.fog[59].dispatcher droppedJobsSLA_class_1 406866
scalar FogSequentialForward.fog[59].server[0] rho 0.99250513315201
scalar FogSequentialForward.fog[59].server[0] congestionRatio 0
scalar FogSequentialForward.fog[59].server[0] totalJobs 1035593
scalar FogSequentialForward.fog[59].server[0] droppedJobsQueue 3745
scalar FogSequentialForward.fog[59].server[0] droppedJobsTimout 0
scalar FogSequentialForward.fog[59].server[0] droppedJobsSLA 488467
scalar FogSequentialForward.fog[59].server[0] droppedJobsTotal 492212
scalar FogSequentialForward.fog[60].dispatcher localJobs 1036173
scalar FogSequentialForward.fog[60].dispatcher internalJobs 1442547
scalar FogSequentialForward.fog[60].dispatcher externalJobs 8081657
scalar FogSequentialForward.fog[60].dispatcher remoteJobs 8080768
scalar FogSequentialForward.fog[60].dispatcher probeQueries 0
scalar FogSequentialForward.fog[60].dispatcher probeAnswers 0
scalar FogSequentialForward.fog[60].dispatcher droppedJobsSLA 407263
scalar FogSequentialForward.fog[60].dispatcher jobs_class_1 9524204
scalar FogSequentialForward.fog[60].dispatcher remoteJobs_class_1 8080768
scalar FogSequentialForward.fog[60].dispatcher localJobs_class_1 1036173
scalar FogSequentialForward.fog[60].dispatcher droppedJobsSLA_class_1 407263
scalar FogSequentialForward.fog[60].server[0] rho 0.9925172328949
scalar FogSequentialForward.fog[60].server[0] congestionRatio 0
scalar FogSequentialForward.fog[60].server[0] totalJobs 1036173
scalar FogSequentialForward.fog[60].server[0] droppedJobsQueue 3754
scalar FogSequentialForward.fog[60].server[0] droppedJobsTimout 0
scalar FogSequentialForward.fog[60].server[0] droppedJobsSLA 488627
scalar FogSequentialForward.fog[60].server[0] droppedJobsTotal 492381
scalar FogSequentialForward.fog[61].dispatcher localJobs 1035821
scalar FogSequentialForward.fog[61].dispatcher internalJobs 1441380
scalar FogSequentialForward.fog[61].dispatcher externalJobs 8078391
scalar FogSequentialForward.fog[61].dispatcher remoteJobs 8076995
scalar FogSequentialForward.fog[61].dispatcher probeQueries 0
scalar FogSequentialForward.fog[61].dispatcher probeAnswers 0
scalar FogSequentialForward.fog[61].dispatcher droppedJobsSLA 406955
scalar FogSequentialForward.fog[61].dispatcher jobs_class_1 9519771
scalar FogSequentialForward.fog[61].dispatcher remoteJobs_class_1 8076995
scalar FogSequentialForward.fog[61].dispatcher localJobs_class_1 1035821
scalar FogSequentialForward.fog[61].dispatcher droppedJobsSLA_class_1 406955
scalar FogSequentialForward.fog[61].server[0] rho 0.99251025915146
scalar FogSequentialForward.fog[61].server[0] congestionRatio 0
scalar FogSequentialForward.fog[61].server[0] totalJobs 1035821
scalar FogSequentialForward.fog[61].server[0] droppedJobsQueue 3827
scalar FogSequentialForward.fog[61].server[0] droppedJobsTimout 0
scalar FogSequentialForward.fog[61].server[0] droppedJobsSLA 487940
scalar FogSequentialForward.fog[61].server[0] droppedJobsTotal 491767
scalar FogSequentialForward.fog[62].dispatcher localJobs 1035777
scalar FogSequentialForward.fog[62].dispatcher internalJobs 1442446
scalar FogSequentialForward.fog[62].dispatcher externalJobs 8078272
scalar FogSequentialForward.fog[62].dispatcher remoteJobs 8079436
scalar FogSequentialForward.fog[62].dispatcher probeQueries 0
scalar FogSequentialForward.fog[62].dispatcher probeAnswers 0
scalar FogSequentialForward.fog[62].dispatcher droppedJobsSLA 405505
scalar FogSequentialForward.fog[62].dispatcher jobs_class_1 9520718
scalar FogSequentialForward.fog[62].dispatcher remoteJobs_class_1 8079436
scalar FogSequentialForward.fog[62].dispatcher localJobs_class_1 1035777
scalar FogSequentialForward.fog[62].dispatcher droppedJobsSLA_class_1 405505
scalar FogSequentialForward.fog[62].server[0] rho 0.99246770143509
scalar FogSequentialForward.fog[62].server[0] congestionRatio 0
scalar FogSequentialForward.fog[62].server[0] totalJobs 1035777
scalar FogSequentialForward.fog[62].server[0] droppedJobsQueue 3760
scalar FogSequentialForward.fog[62].server[0] droppedJobsTimout 0
scalar FogSequentialForward.fog[62].server[0] droppedJobsSLA 488749
scalar FogSequentialForward.fog[62].server[0] droppedJobsTotal 492509
scalar FogSequentialForward.fog[63].dispatcher localJobs 1036385
scalar FogSequentialForward.fog[63].dispatcher internalJobs 1442657
scalar FogSequentialForward.fog[63].dispatcher externalJobs 8082040
scalar FogSequentialForward.fog[63].dispatcher remoteJobs 8080614
scalar FogSequentialForward.fog[63].dispatcher probeQueries 0
scalar FogSequentialForward.fog[63].dispatcher probeAnswers 0
scalar FogSequentialForward.fog[63].dispatcher droppedJobsSLA 407698
scalar FogSequentialForward.fog[63].dispatcher jobs_class_1 9524697
scalar FogSequentialForward.fog[63].dispatcher remoteJobs_class_1 8080614
scalar FogSequentialForward.fog[63].dispatcher localJobs_class_1 1036385
scalar FogSequentialForward.fog[63].dispatcher droppedJobsSLA_class_1 407698
scalar FogSequentialForward.fog[63].server[0] rho 0.99252486228943
scalar FogSequentialForward.fog[63].server[0] congestionRatio 0
scalar FogSequentialForward.fog[63].server[0] totalJobs 1036385
scalar FogSequentialForward.fog[63].server[0] droppedJobsQueue 3742
scalar FogSequentialForward.fog[63].server[0] droppedJobsTimout 0
scalar FogSequentialForward.fog[63].server[0] droppedJobsSLA 489646
scalar FogSequentialForward.fog[63].server[0] droppedJobsTotal 493388
scalar FogSequentialForward.fog[64].dispatcher localJobs 1036972
scalar FogSequentialForward.fog[64].dispatcher internalJobs 1444694
scalar FogSequentialForward.fog[64].dispatcher externalJobs 8079427
scalar FogSequentialForward.fog[64].dispatcher remoteJobs 8079930
scalar FogSequentialForward.fog[64].dispatcher probeQueries 0
scalar FogSequentialForward.fog[64].dispatcher probeAnswers 0
scalar FogSequentialForward.fog[64].dispatcher droppedJobsSLA 407219
scalar FogSequentialForward.fog[64].dispatcher jobs_class_1 9524121
scalar FogSequentialForward.fog[64].dispatcher remoteJobs_class_1 8079930
scalar FogSequentialForward.fog[64].dispatcher localJobs_class_1 1036972
scalar FogSequentialForward.fog[64].dispatcher droppedJobsSLA_class_1 407219
scalar FogSequentialForward.fog[64].server[0] rho 0.99245500564575
scalar FogSequentialForward.fog[64].server[0] congestionRatio 0
[...]
scalar FogSequentialForward.fog[84].dispatcher localJobs_class_1 1035265
scalar FogSequentialForward.fog[84].dispatcher droppedJobsSLA_class_1 407108
scalar FogSequentialForward.fog[84].server[0] rho 0.99248659610748
scalar FogSequentialForward.fog[84].server[0] congestionRatio 0
scalar FogSequentialForward.fog[84].server[0] totalJobs 1035265
scalar FogSequentialForward.fog[84].server[0] droppedJobsQueue 3694
scalar FogSequentialForward.fog[84].server[0] droppedJobsTimout 0
scalar FogSequentialForward.fog[84].server[0] droppedJobsSLA 488035
scalar FogSequentialForward.fog[84].server[0] droppedJobsTotal 491729
scalar FogSequentialForward.fog[85].dispatcher localJobs 1035441
scalar FogSequentialForward.fog[85].dispatcher internalJobs 1442838
scalar FogSequentialForward.fog[85].dispatcher externalJobs 8082729
scalar FogSequentialForward.fog[85].dispatcher remoteJobs 8082783
scalar FogSequentialForward.fog[85].dispatcher probeQueries 0
scalar FogSequentialForward.fog[85].dispatcher probeAnswers 0
scalar FogSequentialForward.fog[85].dispatcher droppedJobsSLA 407343
scalar FogSequentialForward.fog[85].dispatcher jobs_class_1 9525567
scalar FogSequentialForward.fog[85].dispatcher remoteJobs_class_1 8082783
scalar FogSequentialForward.fog[85].dispatcher localJobs_class_1 1035441
scalar FogSequentialForward.fog[85].dispatcher droppedJobsSLA_class_1 407343
scalar FogSequentialForward.fog[85].server[0] rho 0.99246406555176
scalar FogSequentialForward.fog[85].server[0] congestionRatio 0
scalar FogSequentialForward.fog[85].server[0] totalJobs 1035441
scalar FogSequentialForward.fog[85].server[0] droppedJobsQueue 3645
scalar FogSequentialForward.fog[85].server[0] droppedJobsTimout 0
scalar FogSequentialForward.fog[85].server[0] droppedJobsSLA 487991
scalar FogSequentialForward.fog[85].server[0] droppedJobsTotal 491636
scalar FogSequentialForward.fog[86].dispatcher localJobs 1036509
scalar FogSequentialForward.fog[86].dispatcher internalJobs 1444418
scalar FogSequentialForward.fog[86].dispatcher externalJobs 8079705
scalar FogSequentialForward.fog[86].dispatcher remoteJobs 8082547
scalar FogSequentialForward.fog[86].dispatcher probeQueries 0
scalar FogSequentialForward.fog[86].dispatcher probeAnswers 0
scalar FogSequentialForward.fog[86].dispatcher droppedJobsSLA 405067
scalar FogSequentialForward.fog[86].dispatcher jobs_class_1 9524123
scalar FogSequentialForward.fog[86].dispatcher remoteJobs_class_1 8082547
scalar FogSequentialForward.fog[86].dispatcher localJobs_class_1 1036509
scalar FogSequentialForward.fog[86].dispatcher droppedJobsSLA_class_1 405067
scalar FogSequentialForward.fog[86].server[0] rho 0.99243277311325
scalar FogSequentialForward.fog[86].server[0] congestionRatio 0
scalar FogSequentialForward.fog[86].server[0] totalJobs 1036509
scalar FogSequentialForward.fog[86].server[0] droppedJobsQueue 3777
scalar FogSequentialForward.fog[86].server[0] droppedJobsTimout 0
scalar FogSequentialForward.fog[86].server[0] droppedJobsSLA 489379
scalar FogSequentialForward.fog[86].server[0] droppedJobsTotal 493156
scalar FogSequentialForward.fog[87].dispatcher localJobs 1036196
scalar FogSequentialForward.fog[87].dispatcher internalJobs 1442253
scalar FogSequentialForward.fog[87].dispatcher externalJobs 8088024
scalar FogSequentialForward.fog[87].dispatcher remoteJobs 8087268
scalar FogSequentialForward.fog[87].dispatcher probeQueries 0
scalar FogSequentialForward.fog[87].dispatcher probeAnswers 0
scalar FogSequentialForward.fog[87].dispatcher droppedJobsSLA 406813
scalar FogSequentialForward.fog[87].dispatcher jobs_class_1 9530277
scalar FogSequentialForward.fog[87].dispatcher remoteJobs_class_1 8087268
scalar FogSequentialForward.fog[87].dispatcher localJobs_class_1 1036196
scalar FogSequentialForward.fog[87].dispatcher droppedJobsSLA_class_1 406813
scalar FogSequentialForward.fog[87].server[0] rho 0.99250417947769
scalar FogSequentialForward.fog[87].server[0] congestionRatio 0
scalar FogSequentialForward.fog[87].server[0] totalJobs 1036196
scalar FogSequentialForward.fog[87].server[0] droppedJobsQueue 3840
scalar FogSequentialForward.fog[87].server[0] droppedJobsTimout 0
scalar FogSequentialForward.fog[87].server[0] droppedJobsSLA 488898
scalar FogSequentialForward.fog[87].server[0] droppedJobsTotal 492738
scalar FogSequentialForward.fog[88].dispatcher localJobs 1036125
scalar FogSequentialForward.fog[88].dispatcher internalJobs 1442089
scalar FogSequentialForward.fog[88].dispatcher externalJobs 8087686
scalar FogSequentialForward.fog[88].dispatcher remoteJobs 8087199
scalar FogSequentialForward.fog[88].dispatcher probeQueries 0
scalar FogSequentialForward.fog[88].dispatcher probeAnswers 0
scalar FogSequentialForward.fog[88].dispatcher droppedJobsSLA 406451
scalar FogSequentialForward.fog[88].dispatcher jobs_class_1 9529775
scalar FogSequentialForward.fog[88].dispatcher remoteJobs_class_1 8087199
scalar FogSequentialForward.fog[88].dispatcher localJobs_class_1 1036125
scalar FogSequentialForward.fog[88].dispatcher droppedJobsSLA_class_1 406451
scalar FogSequentialForward.fog[88].server[0] rho 0.99247878789902
scalar FogSequentialForward.fog[88].server[0] congestionRatio 0
scalar FogSequentialForward.fog[88].server[0] totalJobs 1036125
scalar FogSequentialForward.fog[88].server[0] droppedJobsQueue 3843
scalar FogSequentialForward.fog[88].server[0] droppedJobsTimout 0
scalar FogSequentialForward.fog[88].server[0] droppedJobsSLA 488988
scalar FogSequentialForward.fog[88].server[0] droppedJobsTotal 492831
scalar FogSequentialForward.fog[89].dispatcher localJobs 1036057
scalar FogSequentialForward.fog[89].dispatcher internalJobs 1442226
scalar FogSequentialForward.fog[89].dispatcher externalJobs 8079970
scalar FogSequentialForward.fog[89].dispatcher remoteJobs 8078382
scalar FogSequentialForward.fog[89].dispatcher probeQueries 0
scalar FogSequentialForward.fog[89].dispatcher probeAnswers 0
scalar FogSequentialForward.fog[89].dispatcher droppedJobsSLA 407757
scalar FogSequentialForward.fog[89].dispatcher jobs_class_1 9522196
scalar FogSequentialForward.fog[89].dispatcher remoteJobs_class_1 8078382
scalar FogSequentialForward.fog[89].dispatcher localJobs_class_1 1036057
scalar FogSequentialForward.fog[89].dispatcher droppedJobsSLA_class_1 407757
scalar FogSequentialForward.fog[89].server[0] rho 0.99249142408371
scalar FogSequentialForward.fog[89].server[0] congestionRatio 0
scalar FogSequentialForward.fog[89].server[0] totalJobs 1036057
scalar FogSequentialForward.fog[89].server[0] droppedJobsQueue 3788
scalar FogSequentialForward.fog[89].server[0] droppedJobsTimout 0
scalar FogSequentialForward.fog[89].server[0] droppedJobsSLA 488782
scalar FogSequentialForward.fog[89].server[0] droppedJobsTotal 492570
scalar FogSequentialForward.fog[90].dispatcher localJobs 1036671
scalar FogSequentialForward.fog[90].dispatcher internalJobs 1442951
scalar FogSequentialForward.fog[90].dispatcher externalJobs 8084683
scalar FogSequentialForward.fog[90].dispatcher remoteJobs 8083605
scalar FogSequentialForward.fog[90].dispatcher probeQueries 0
scalar FogSequentialForward.fog[90].dispatcher probeAnswers 0
scalar FogSequentialForward.fog[90].dispatcher droppedJobsSLA 407358
scalar FogSequentialForward.fog[90].dispatcher jobs_class_1 9527634
scalar FogSequentialForward.fog[90].dispatcher remoteJobs_class_1 8083605
scalar FogSequentialForward.fog[90].dispatcher localJobs_class_1 1036671
scalar FogSequentialForward.fog[90].dispatcher droppedJobsSLA_class_1 407358
scalar FogSequentialForward.fog[90].server[0] rho 0.99248933792114
scalar FogSequentialForward.fog[90].server[0] congestionRatio 0
scalar FogSequentialForward.fog[90].server[0] totalJobs 1036671
scalar FogSequentialForward.fog[90].server[0] droppedJobsQueue 3744
scalar FogSequentialForward.fog[90].server[0] droppedJobsTimout 0
scalar FogSequentialForward.fog[90].server[0] droppedJobsSLA 489614
scalar FogSequentialForward.fog[90].server[0] droppedJobsTotal 493358
scalar FogSequentialForward.fog[91].dispatcher localJobs 1036377
scalar FogSequentialForward.fog[91].dispatcher internalJobs 1443475
scalar FogSequentialForward.fog[91].dispatcher externalJobs 8083570
scalar FogSequentialForward.fog[91].dispatcher remoteJobs 8084013
scalar FogSequentialForward.fog[91].dispatcher probeQueries 0
scalar FogSequentialForward.fog[91].dispatcher probeAnswers 0
scalar FogSequentialForward.fog[91].dispatcher droppedJobsSLA 406655
scalar FogSequentialForward.fog[91].dispatcher jobs_class_1 9527045
scalar FogSequentialForward.fog[91].dispatcher remoteJobs_class_1 8084013
scalar FogSequentialForward.fog[91].dispatcher localJobs_class_1 1036377
scalar FogSequentialForward.fog[91].dispatcher droppedJobsSLA_class_1 406655
scalar FogSequentialForward.fog[91].server[0] rho 0.99253457784653
scalar FogSequentialForward.fog[91].server[0] congestionRatio 0
scalar FogSequentialForward.fog[91].server[0] totalJobs 1036377
scalar FogSequentialForward.fog[91].server[0] droppedJobsQueue 3756
scalar FogSequentialForward.fog[91].server[0] droppedJobsTimout 0
scalar FogSequentialForward.fog[91].server[0] droppedJobsSLA 489361
scalar FogSequentialForward.fog[91].server[0] droppedJobsTotal 493117
scalar FogSequentialForward.fog[92].dispatcher localJobs 1037071
scalar FogSequentialForward.fog[92].dispatcher internalJobs 1443766
scalar FogSequentialForward.fog[92].dispatcher externalJobs 8083227
scalar FogSequentialForward.fog[92].dispatcher remoteJobs 8083916
scalar FogSequentialForward.fog[92].dispatcher probeQueries 0
scalar FogSequentialForward.fog[92].dispatcher probeAnswers 0
scalar FogSequentialForward.fog[92].dispatcher droppedJobsSLA 406006
scalar FogSequentialForward.fog[92].dispatcher jobs_class_1 9526993
scalar FogSequentialForward.fog[92].dispatcher remoteJobs_class_1 8083916
scalar FogSequentialForward.fog[92].dispatcher localJobs_class_1 1037071
scalar FogSequentialForward.fog[92].dispatcher droppedJobsSLA_class_1 406006
scalar FogSequentialForward.fog[92].server[0] rho 0.99252116680145
scalar FogSequentialForward.fog[92].server[0] congestionRatio 0
scalar FogSequentialForward.fog[92].server[0] totalJobs 1037071
scalar FogSequentialForward.fog[92].server[0] droppedJobsQueue 3863
scalar FogSequentialForward.fog[92].server[0] droppedJobsTimout 0
scalar FogSequentialForward.fog[92].server[0] droppedJobsSLA 490058
scalar FogSequentialForward.fog[92].server[0] droppedJobsTotal 493921
scalar FogSequentialForward.fog[93].dispatcher localJobs 1035053
scalar FogSequentialForward.fog[93].dispatcher internalJobs 1444025
scalar FogSequentialForward.fog[93].dispatcher externalJobs 8081523
scalar FogSequentialForward.fog[93].dispatcher remoteJobs 8085061
scalar FogSequentialForward.fog[93].dispatcher probeQueries 0
scalar FogSequentialForward.fog[93].dispatcher probeAnswers 0
scalar FogSequentialForward.fog[93].dispatcher droppedJobsSLA 405434
scalar FogSequentialForward.fog[93].dispatcher jobs_class_1 9525548
scalar FogSequentialForward.fog[93].dispatcher remoteJobs_class_1 8085061
scalar FogSequentialForward.fog[93].dispatcher localJobs_class_1 1035053
scalar FogSequentialForward.fog[93].dispatcher droppedJobsSLA_class_1 405434
scalar FogSequentialForward.fog[93].server[0] rho 0.99248659610748
scalar FogSequentialForward.fog[93].server[0] congestionRatio 0
scalar FogSequentialForward.fog[93].server[0] totalJobs 1035053
scalar FogSequentialForward.fog[93].server[0] droppedJobsQueue 3877
scalar FogSequentialForward.fog[93].server[0] droppedJobsTimout 0
scalar FogSequentialForward.fog[93].server[0] droppedJobsSLA 487833
scalar FogSequentialForward.fog[93].server[0] droppedJobsTotal 491710
scalar FogSequentialForward.fog[94].dispatcher localJobs 1036783
scalar FogSequentialForward.fog[94].dispatcher internalJobs 1441422
scalar FogSequentialForward.fog[94].dispatcher externalJobs 8084703
scalar FogSequentialForward.fog[94].dispatcher remoteJobs 8082195
scalar FogSequentialForward.fog[94].dispatcher probeQueries 0
scalar FogSequentialForward.fog[94].dispatcher probeAnswers 0
scalar FogSequentialForward.fog[94].dispatcher droppedJobsSLA 407147
scalar FogSequentialForward.fog[94].dispatcher jobs_class_1 9526125
scalar FogSequentialForward.fog[94].dispatcher remoteJobs_class_1 8082195
scalar FogSequentialForward.fog[94].dispatcher localJobs_class_1 1036783
scalar FogSequentialForward.fog[94].dispatcher droppedJobsSLA_class_1 407147
scalar FogSequentialForward.fog[94].server[0] rho 0.99247473478317
scalar FogSequentialForward.fog[94].server[0] congestionRatio 0
scalar FogSequentialForward.fog[94].server[0] totalJobs 1036783
scalar FogSequentialForward.fog[94].server[0] droppedJobsQueue 3772
scalar FogSequentialForward.fog[94].server[0] droppedJobsTimout 0
scalar FogSequentialForward.fog[94].server[0] droppedJobsSLA 489900
scalar FogSequentialForward.fog[94].server[0] droppedJobsTotal 493672
scalar FogSequentialForward.fog[95].dispatcher localJobs 1036046
scalar FogSequentialForward.fog[95].dispatcher internalJobs 1442898
scalar FogSequentialForward.fog[95].dispatcher externalJobs 8079013
scalar FogSequentialForward.fog[95].dispatcher remoteJobs 8080020
scalar FogSequentialForward.fog[95].dispatcher probeQueries 0
scalar FogSequentialForward.fog[95].dispatcher probeAnswers 0
scalar FogSequentialForward.fog[95].dispatcher droppedJobsSLA 405845
scalar FogSequentialForward.fog[95].dispatcher jobs_class_1 9521911
scalar FogSequentialForward.fog[95].dispatcher remoteJobs_class_1 8080020
scalar FogSequentialForward.fog[95].dispatcher localJobs_class_1 1036046
scalar FogSequentialForward.fog[95].dispatcher droppedJobsSLA_class_1 405845
scalar FogSequentialForward.fog[95].server[0] rho 0.99253225326538
scalar FogSequentialForward.fog[95].server[0] congestionRatio 0
scalar FogSequentialForward.fog[95].server[0] totalJobs 1036046
scalar FogSequentialForward.fog[95].server[0] droppedJobsQueue 3645
scalar FogSequentialForward.fog[95].server[0] droppedJobsTimout 0
scalar FogSequentialForward.fog[95].server[0] droppedJobsSLA 488966
scalar FogSequentialForward.fog[95].server[0] droppedJobsTotal 492611
scalar FogSequentialForward.fog[96].dispatcher localJobs 1035710
scalar FogSequentialForward.fog[96].dispatcher internalJobs 1444391
scalar FogSequentialForward.fog[96].dispatcher externalJobs 8082513
scalar FogSequentialForward.fog[96].dispatcher remoteJobs 8085231
scalar FogSequentialForward.fog[96].dispatcher probeQueries 0
scalar FogSequentialForward.fog[96].dispatcher probeAnswers 0
scalar FogSequentialForward.fog[96].dispatcher droppedJobsSLA 405963
scalar FogSequentialForward.fog[96].dispatcher jobs_class_1 9526904
scalar FogSequentialForward.fog[96].dispatcher remoteJobs_class_1 8085231
scalar FogSequentialForward.fog[96].dispatcher localJobs_class_1 1035710
scalar FogSequentialForward.fog[96].dispatcher droppedJobsSLA_class_1 405963
scalar FogSequentialForward.fog[96].server[0] rho 0.99249720573425
scalar FogSequentialForward.fog[96].server[0] congestionRatio 0
scalar FogSequentialForward.fog[96].server[0] totalJobs 1035710
scalar FogSequentialForward.fog[96].server[0] droppedJobsQueue 3709
scalar FogSequentialForward.fog[96].server[0] droppedJobsTimout 0
scalar FogSequentialForward.fog[96].server[0] droppedJobsSLA 488930
scalar FogSequentialForward.fog[96].server[0] droppedJobsTotal 492639
scalar FogSequentialForward.fog[97].dispatcher localJobs 1035185
scalar FogSequentialForward.fog[97].dispatcher internalJobs 1440887
scalar FogSequentialForward.fog[97].dispatcher externalJobs 8080384
scalar FogSequentialForward.fog[97].dispatcher remoteJobs 8079142
scalar FogSequentialForward.fog[97].dispatcher probeQueries 0
scalar FogSequentialForward.fog[97].dispatcher probeAnswers 0
scalar FogSequentialForward.fog[97].dispatcher droppedJobsSLA 406944
scalar FogSequentialForward.fog[97].dispatcher jobs_class_1 9521271
scalar FogSequentialForward.fog[97].dispatcher remoteJobs_class_1 8079142
scalar FogSequentialForward.fog[97].dispatcher localJobs_class_1 1035185
scalar FogSequentialForward.fog[97].dispatcher droppedJobsSLA_class_1 406944
scalar FogSequentialForward.fog[97].server[0] rho 0.99247831106186
scalar FogSequentialForward.fog[97].server[0] congestionRatio 0
scalar FogSequentialForward.fog[97].server[0] totalJobs 1035185
scalar FogSequentialForward.fog[97].server[0] droppedJobsQueue 3702
scalar FogSequentialForward.fog[97].server[0] droppedJobsTimout 0
scalar FogSequentialForward.fog[97].server[0] droppedJobsSLA 488284
scalar FogSequentialForward.fog[97].server[0] droppedJobsTotal 491986
scalar FogSequentialForward.fog[98].dispatcher localJobs 1035637
scalar FogSequentialForward.fog[98].dispatcher internalJobs 1441773
scalar FogSequentialForward.fog[98].dispatcher externalJobs 8081837
scalar FogSequentialForward.fog[98].dispatcher remoteJobs 8082008
scalar FogSequentialForward.fog[98].dispatcher probeQueries 0
scalar FogSequentialForward.fog[98].dispatcher probeAnswers 0
scalar FogSequentialForward.fog[98].dispatcher droppedJobsSLA 405965
scalar FogSequentialForward.fog[98].dispatcher jobs_class_1 9523610
scalar FogSequentialForward.fog[98].dispatcher remoteJobs_class_1 8082008
scalar FogSequentialForward.fog[98].dispatcher localJobs_class_1 1035637
scalar FogSequentialForward.fog[98].dispatcher droppedJobsSLA_class_1 405965
scalar FogSequentialForward.fog[98].server[0] rho 0.99249827861786
scalar FogSequentialForward.fog[98].server[0] congestionRatio 0
scalar FogSequentialForward.fog[98].server[0] totalJobs 1035637
scalar FogSequentialForward.fog[98].server[0] droppedJobsQueue 3780
scalar FogSequentialForward.fog[98].server[0] droppedJobsTimout 0
scalar FogSequentialForward.fog[98].server[0] droppedJobsSLA 488823
scalar FogSequentialForward.fog[98].server[0] droppedJobsTotal 492603
scalar FogSequentialForward.fog[99].dispatcher localJobs 1036420
scalar FogSequentialForward.fog[99].dispatcher internalJobs 1442905
scalar FogSequentialForward.fog[99].dispatcher externalJobs 8079462
scalar FogSequentialForward.fog[99].dispatcher remoteJobs 8078957
scalar FogSequentialForward.fog[99].dispatcher probeQueries 0
scalar FogSequentialForward.fog[99].dispatcher probeAnswers 0
scalar FogSequentialForward.fog[99].dispatcher droppedJobsSLA 406990
scalar FogSequentialForward.fog[99].dispatcher jobs_class_1 9522367
scalar FogSequentialForward.fog[99].dispatcher remoteJobs_class_1 8078957
scalar FogSequentialForward.fog[99].dispatcher localJobs_class_1 1036420
scalar FogSequentialForward.fog[99].dispatcher droppedJobsSLA_class_1 406990
scalar FogSequentialForward.fog[99].server[0] rho 0.99246740341187
scalar FogSequentialForward.fog[99].server[0] congestionRatio 0
scalar FogSequentialForward.fog[99].server[0] totalJobs 1036420
scalar FogSequentialForward.fog[99].server[0] droppedJobsQueue 3742
scalar FogSequentialForward.fog[99].server[0] droppedJobsTimout 0
scalar FogSequentialForward.fog[99].server[0] droppedJobsSLA 489262
scalar FogSequentialForward.fog[99].server[0] droppedJobsTotal 493004
scalar FogSequentialForward.sink avg_responseTime_1 0.111100152367
scalar FogSequentialForward.sink p90_responseTime_1 0.014881387563
scalar FogSequentialForward.sink med_responseTime_1 0.014881387563
scalar FogSequentialForward.sink avg_delayTime_1 0
scalar FogSequentialForward.sink p90_delayTime_1 0
scalar FogSequentialForward.sink med_delayTime_1 0
scalar FogSequentialForward.sink avg_queuingTime_1 0.059354530864749
scalar FogSequentialForward.sink p90_queuingTime_1 0
scalar FogSequentialForward.sink med_queuingTime_1 0
scalar FogSequentialForward.sink avg_serviceTime_1 0.01671292471447
scalar FogSequentialForward.sink p90_serviceTime_1 0.01474753986
scalar FogSequentialForward.sink med_serviceTime_1 0.01474753986
scalar FogSequentialForward.sink avg_balancerTime_1 0.035032696797015
scalar FogSequentialForward.sink p90_balancerTime_1 0
scalar FogSequentialForward.sink med_balancerTime_1 0
scalar FogSequentialForward.sink avg_balancerCount_1 3.097766274717
scalar FogSequentialForward.sink p90_balancerCount_1 1
scalar FogSequentialForward.sink med_balancerCount_1 1

