version 2
run Fog-mul_10-rho_05-thr_18-4-20190714-02:26:05-91296
attr configname Fog-mul_10-rho_05-thr_18
attr datetime 20190714-02:26:05
attr experiment Fog-mul_10-rho_05-thr_18
attr inifile FogSequentialForward.ini
attr iterationvars ""
attr iterationvarsf ""
attr measurement ""
attr network FogSequentialForward
attr processid 91296
attr repetition 4
attr replication #4
attr resultdir results
attr runnumber 4
attr seedset 4
param FogSequentialForward.proctimeMul 1.0
param FogSequentialForward.rho 0.5
param FogSequentialForward.fog[*].dispatcher.thr 18
param FogSequentialForward.nSources 100
param FogSequentialForward.rho 0.9
param FogSequentialForward.proctimeMul 1.0
param FogSequentialForward.source[*].appId 1
param FogSequentialForward.source[*].realTime true
param FogSequentialForward.source[*].multiHop true
param FogSequentialForward.fog[*].nServers 1
param FogSequentialForward.fog[*].dispatcher.fanOut 1
param FogSequentialForward.fog[*].server[*].timeSlice -1s
param FogSequentialForward.fog[*].server[*].timeout -1s
param FogSequentialForward.fog[*].server[*].capacity 20
param FogSequentialForward.fog[*].server[*].fifo true
param FogSequentialForward.fog[*].server[*].maxServiceTime -1s
param FogSequentialForward.fog[*].dispatcher.thr 1

scalar FogSequentialForward.fog[0].dispatcher localJobs 9060
scalar FogSequentialForward.fog[0].dispatcher internalJobs 9079
scalar FogSequentialForward.fog[0].dispatcher externalJobs 1037
scalar FogSequentialForward.fog[0].dispatcher remoteJobs 1056
scalar FogSequentialForward.fog[0].dispatcher probeQueries 0
scalar FogSequentialForward.fog[0].dispatcher probeAnswers 0
scalar FogSequentialForward.fog[0].dispatcher droppedJobsSLA 0
scalar FogSequentialForward.fog[0].dispatcher jobs_class_1 10116
scalar FogSequentialForward.fog[0].dispatcher remoteJobs_class_1 1056
scalar FogSequentialForward.fog[0].dispatcher localJobs_class_1 9060
scalar FogSequentialForward.fog[0].server[0] rho 1
scalar FogSequentialForward.fog[0].server[0] congestionRatio 0
scalar FogSequentialForward.fog[0].server[0] totalJobs 9060
scalar FogSequentialForward.fog[0].server[0] droppedJobsQueue 12
scalar FogSequentialForward.fog[0].server[0] droppedJobsTimout 0
scalar FogSequentialForward.fog[0].server[0] droppedJobsSLA 5692
scalar FogSequentialForward.fog[0].server[0] droppedJobsTotal 5704
scalar FogSequentialForward.fog[1].dispatcher localJobs 8996
scalar FogSequentialForward.fog[1].dispatcher internalJobs 8974
scalar FogSequentialForward.fog[1].dispatcher externalJobs 961
scalar FogSequentialForward.fog[1].dispatcher remoteJobs 939
scalar FogSequentialForward.fog[1].dispatcher probeQueries 0
scalar FogSequentialForward.fog[1].dispatcher probeAnswers 0
scalar FogSequentialForward.fog[1].dispatcher droppedJobsSLA 0
scalar FogSequentialForward.fog[1].dispatcher jobs_class_1 9935
scalar FogSequentialForward.fog[1].dispatcher remoteJobs_class_1 939
scalar FogSequentialForward.fog[1].dispatcher localJobs_class_1 8996
scalar FogSequentialForward.fog[1].server[0] rho 0.99956315755844
scalar FogSequentialForward.fog[1].server[0] congestionRatio 0
scalar FogSequentialForward.fog[1].server[0] totalJobs 8996
scalar FogSequentialForward.fog[1].server[0] droppedJobsQueue 8
scalar FogSequentialForward.fog[1].server[0] droppedJobsTimout 0
scalar FogSequentialForward.fog[1].server[0] droppedJobsSLA 5727
scalar FogSequentialForward.fog[1].server[0] droppedJobsTotal 5735
scalar FogSequentialForward.fog[2].dispatcher localJobs 8982
scalar FogSequentialForward.fog[2].dispatcher internalJobs 8927
scalar FogSequentialForward.fog[2].dispatcher externalJobs 969
scalar FogSequentialForward.fog[2].dispatcher remoteJobs 914
scalar FogSequentialForward.fog[2].dispatcher probeQueries 0
scalar FogSequentialForward.fog[2].dispatcher probeAnswers 0
scalar FogSequentialForward.fog[2].dispatcher droppedJobsSLA 0
scalar FogSequentialForward.fog[2].dispatcher jobs_class_1 9896
scalar FogSequentialForward.fog[2].dispatcher remoteJobs_class_1 914
scalar FogSequentialForward.fog[2].dispatcher localJobs_class_1 8982
scalar FogSequentialForward.fog[2].server[0] rho 0.99988806247711
scalar FogSequentialForward.fog[2].server[0] congestionRatio 0
scalar FogSequentialForward.fog[2].server[0] totalJobs 8982
scalar FogSequentialForward.fog[2].server[0] droppedJobsQueue 7
scalar FogSequentialForward.fog[2].server[0] droppedJobsTimout 0
scalar FogSequentialForward.fog[2].server[0] droppedJobsSLA 5685
scalar FogSequentialForward.fog[2].server[0] droppedJobsTotal 5692
scalar FogSequentialForward.fog[3].dispatcher localJobs 8920
scalar FogSequentialForward.fog[3].dispatcher internalJobs 8902
scalar FogSequentialForward.fog[3].dispatcher externalJobs 991
scalar FogSequentialForward.fog[3].dispatcher remoteJobs 973
scalar FogSequentialForward.fog[3].dispatcher probeQueries 0
scalar FogSequentialForward.fog[3].dispatcher probeAnswers 0
scalar FogSequentialForward.fog[3].dispatcher droppedJobsSLA 0
scalar FogSequentialForward.fog[3].dispatcher jobs_class_1 9893
scalar FogSequentialForward.fog[3].dispatcher remoteJobs_class_1 973
scalar FogSequentialForward.fog[3].dispatcher localJobs_class_1 8920
scalar FogSequentialForward.fog[3].server[0] rho 0.99921971559525
scalar FogSequentialForward.fog[3].server[0] congestionRatio 0
scalar FogSequentialForward.fog[3].server[0] totalJobs 8920
scalar FogSequentialForward.fog[3].server[0] droppedJobsQueue 3
scalar FogSequentialForward.fog[3].server[0] droppedJobsTimout 0
scalar FogSequentialForward.fog[3].server[0] droppedJobsSLA 5442
scalar FogSequentialForward.fog[3].server[0] droppedJobsTotal 5445
scalar FogSequentialForward.fog[4].dispatcher localJobs 8981
scalar FogSequentialForward.fog[4].dispatcher internalJobs 8960
scalar FogSequentialForward.fog[4].dispatcher externalJobs 964
scalar FogSequentialForward.fog[4].dispatcher remoteJobs 943
scalar FogSequentialForward.fog[4].dispatcher probeQueries 0
scalar FogSequentialForward.fog[4].dispatcher probeAnswers 0
scalar FogSequentialForward.fog[4].dispatcher droppedJobsSLA 0
scalar FogSequentialForward.fog[4].dispatcher jobs_class_1 9924
scalar FogSequentialForward.fog[4].dispatcher remoteJobs_class_1 943
scalar FogSequentialForward.fog[4].dispatcher localJobs_class_1 8981
scalar FogSequentialForward.fog[4].server[0] rho 0.99994277954102
scalar FogSequentialForward.fog[4].server[0] congestionRatio 0
scalar FogSequentialForward.fog[4].server[0] totalJobs 8981
scalar FogSequentialForward.fog[4].server[0] droppedJobsQueue 4
scalar FogSequentialForward.fog[4].server[0] droppedJobsTimout 0
scalar FogSequentialForward.fog[4].server[0] droppedJobsSLA 5572
scalar FogSequentialForward.fog[4].server[0] droppedJobsTotal 5576
scalar FogSequentialForward.fog[5].dispatcher localJobs 8967
scalar FogSequentialForward.fog[5].dispatcher internalJobs 8914
scalar FogSequentialForward.fog[5].dispatcher externalJobs 930
scalar FogSequentialForward.fog[5].dispatcher remoteJobs 877
scalar FogSequentialForward.fog[5].dispatcher probeQueries 0
scalar FogSequentialForward.fog[5].dispatcher probeAnswers 0
scalar FogSequentialForward.fog[5].dispatcher droppedJobsSLA 0
scalar FogSequentialForward.fog[5].dispatcher jobs_class_1 9844
scalar FogSequentialForward.fog[5].dispatcher remoteJobs_class_1 877
scalar FogSequentialForward.fog[5].dispatcher localJobs_class_1 8967
scalar FogSequentialForward.fog[5].server[0] rho 0.99963569641113
scalar FogSequentialForward.fog[5].server[0] congestionRatio 0
scalar FogSequentialForward.fog[5].server[0] totalJobs 8967
scalar FogSequentialForward.fog[5].server[0] droppedJobsQueue 2
scalar FogSequentialForward.fog[5].server[0] droppedJobsTimout 0
scalar FogSequentialForward.fog[5].server[0] droppedJobsSLA 5554
scalar FogSequentialForward.fog[5].server[0] droppedJobsTotal 5556
scalar FogSequentialForward.fog[6].dispatcher localJobs 8967
scalar FogSequentialForward.fog[6].dispatcher internalJobs 8936
scalar FogSequentialForward.fog[6].dispatcher externalJobs 956
scalar FogSequentialForward.fog[6].dispatcher remoteJobs 925
scalar FogSequentialForward.fog[6].dispatcher probeQueries 0
scalar FogSequentialForward.fog[6].dispatcher probeAnswers 0
scalar FogSequentialForward.fog[6].dispatcher droppedJobsSLA 0
scalar FogSequentialForward.fog[6].dispatcher jobs_class_1 9892
scalar FogSequentialForward.fog[6].dispatcher remoteJobs_class_1 925
scalar FogSequentialForward.fog[6].dispatcher localJobs_class_1 8967
scalar FogSequentialForward.fog[6].server[0] rho 0.99998462200165
scalar FogSequentialForward.fog[6].server[0] congestionRatio 0
scalar FogSequentialForward.fog[6].server[0] totalJobs 8967
scalar FogSequentialForward.fog[6].server[0] droppedJobsQueue 8
scalar FogSequentialForward.fog[6].server[0] droppedJobsTimout 0
scalar FogSequentialForward.fog[6].server[0] droppedJobsSLA 5581
scalar FogSequentialForward.fog[6].server[0] droppedJobsTotal 5589
scalar FogSequentialForward.fog[7].dispatcher localJobs 8921
scalar FogSequentialForward.fog[7].dispatcher internalJobs 8841
scalar FogSequentialForward.fog[7].dispatcher externalJobs 991
scalar FogSequentialForward.fog[7].dispatcher remoteJobs 911
scalar FogSequentialForward.fog[7].dispatcher probeQueries 0
scalar FogSequentialForward.fog[7].dispatcher probeAnswers 0
scalar FogSequentialForward.fog[7].dispatcher droppedJobsSLA 0
scalar FogSequentialForward.fog[7].dispatcher jobs_class_1 9832
scalar FogSequentialForward.fog[7].dispatcher remoteJobs_class_1 911
scalar FogSequentialForward.fog[7].dispatcher localJobs_class_1 8921
scalar FogSequentialForward.fog[7].server[0] rho 0.99938899278641
scalar FogSequentialForward.fog[7].server[0] congestionRatio 0
scalar FogSequentialForward.fog[7].server[0] totalJobs 8921
scalar FogSequentialForward.fog[7].server[0] droppedJobsQueue 2
scalar FogSequentialForward.fog[7].server[0] droppedJobsTimout 0
scalar FogSequentialForward.fog[7].server[0] droppedJobsSLA 5501
scalar FogSequentialForward.fog[7].server[0] droppedJobsTotal 5503
scalar FogSequentialForward.fog[8].dispatcher localJobs 9067
scalar FogSequentialForward.fog[8].dispatcher internalJobs 9062
scalar FogSequentialForward.fog[8].dispatcher externalJobs 1011
scalar FogSequentialForward.fog[8].dispatcher remoteJobs 1006
scalar FogSequentialForward.fog[8].dispatcher probeQueries 0
scalar FogSequentialForward.fog[8].dispatcher probeAnswers 0
scalar FogSequentialForward.fog[8].dispatcher droppedJobsSLA 0
scalar FogSequentialForward.fog[8].dispatcher jobs_class_1 10073
scalar FogSequentialForward.fog[8].dispatcher remoteJobs_class_1 1006
scalar FogSequentialForward.fog[8].dispatcher localJobs_class_1 9067
scalar FogSequentialForward.fog[8].server[0] rho 0.99969589710236
scalar FogSequentialForward.fog[8].server[0] congestionRatio 0
scalar FogSequentialForward.fog[8].server[0] totalJobs 9067
scalar FogSequentialForward.fog[8].server[0] droppedJobsQueue 6
scalar FogSequentialForward.fog[8].server[0] droppedJobsTimout 0
scalar FogSequentialForward.fog[8].server[0] droppedJobsSLA 5766
scalar FogSequentialForward.fog[8].server[0] droppedJobsTotal 5772
scalar FogSequentialForward.fog[9].dispatcher localJobs 8972
scalar FogSequentialForward.fog[9].dispatcher internalJobs 8965
scalar FogSequentialForward.fog[9].dispatcher externalJobs 1031
scalar FogSequentialForward.fog[9].dispatcher remoteJobs 1024
scalar FogSequentialForward.fog[9].dispatcher probeQueries 0
scalar FogSequentialForward.fog[9].dispatcher probeAnswers 0
scalar FogSequentialForward.fog[9].dispatcher droppedJobsSLA 0
scalar FogSequentialForward.fog[9].dispatcher jobs_class_1 9996
scalar FogSequentialForward.fog[9].dispatcher remoteJobs_class_1 1024
scalar FogSequentialForward.fog[9].dispatcher localJobs_class_1 8972
scalar FogSequentialForward.fog[9].server[0] rho 0.99975568056107
scalar FogSequentialForward.fog[9].server[0] congestionRatio 0
scalar FogSequentialForward.fog[9].server[0] totalJobs 8972
scalar FogSequentialForward.fog[9].server[0] droppedJobsQueue 5
scalar FogSequentialForward.fog[9].server[0] droppedJobsTimout 0
scalar FogSequentialForward.fog[9].server[0] droppedJobsSLA 5630
scalar FogSequentialForward.fog[9].server[0] droppedJobsTotal 5635
scalar FogSequentialForward.fog[10].dispatcher localJobs 9012
scalar FogSequentialForward.fog[10].dispatcher internalJobs 8993
scalar FogSequentialForward.fog[10].dispatcher externalJobs 979
scalar FogSequentialForward.fog[10].dispatcher remoteJobs 960
scalar FogSequentialForward.fog[10].dispatcher probeQueries 0
scalar FogSequentialForward.fog[10].dispatcher probeAnswers 0
scalar FogSequentialForward.fog[10].dispatcher droppedJobsSLA 0
scalar FogSequentialForward.fog[10].dispatcher jobs_class_1 9972
scalar FogSequentialForward.fog[10].dispatcher remoteJobs_class_1 960
scalar FogSequentialForward.fog[10].dispatcher localJobs_class_1 9012
scalar FogSequentialForward.fog[10].server[0] rho 0.99945968389511
scalar FogSequentialForward.fog[10].server[0] congestionRatio 0
scalar FogSequentialForward.fog[10].server[0] totalJobs 9012
scalar FogSequentialForward.fog[10].server[0] droppedJobsQueue 8
scalar FogSequentialForward.fog[10].server[0] droppedJobsTimout 0
scalar FogSequentialForward.fog[10].server[0] droppedJobsSLA 5488
scalar FogSequentialForward.fog[10].server[0] droppedJobsTotal 5496
scalar FogSequentialForward.fog[11].dispatcher localJobs 9050
scalar FogSequentialForward.fog[11].dispatcher internalJobs 9057
scalar FogSequentialForward.fog[11].dispatcher externalJobs 950
scalar FogSequentialForward.fog[11].dispatcher remoteJobs 957
scalar FogSequentialForward.fog[11].dispatcher probeQueries 0
scalar FogSequentialForward.fog[11].dispatcher probeAnswers 0
scalar FogSequentialForward.fog[11].dispatcher droppedJobsSLA 0
scalar FogSequentialForward.fog[11].dispatcher jobs_class_1 10007
scalar FogSequentialForward.fog[11].dispatcher remoteJobs_class_1 957
scalar FogSequentialForward.fog[11].dispatcher localJobs_class_1 9050
scalar FogSequentialForward.fog[11].server[0] rho 1
scalar FogSequentialForward.fog[11].server[0] congestionRatio 0
scalar FogSequentialForward.fog[11].server[0] totalJobs 9050
scalar FogSequentialForward.fog[11].server[0] droppedJobsQueue 3
scalar FogSequentialForward.fog[11].server[0] droppedJobsTimout 0
scalar FogSequentialForward.fog[11].server[0] droppedJobsSLA 5711
scalar FogSequentialForward.fog[11].server[0] droppedJobsTotal 5714
scalar FogSequentialForward.fog[12].dispatcher localJobs 9034
scalar FogSequentialForward.fog[12].dispatcher internalJobs 9008
scalar FogSequentialForward.fog[12].dispatcher externalJobs 997
scalar FogSequentialForward.fog[12].dispatcher remoteJobs 971
scalar FogSequentialForward.fog[12].dispatcher probeQueries 0
scalar FogSequentialForward.fog[12].dispatcher probeAnswers 0
scalar FogSequentialForward.fog[12].dispatcher droppedJobsSLA 0
scalar FogSequentialForward.fog[12].dispatcher jobs_class_1 10005
scalar FogSequentialForward.fog[12].dispatcher remoteJobs_class_1 971
scalar FogSequentialForward.fog[12].dispatcher localJobs_class_1 9034
scalar FogSequentialForward.fog[12].server[0] rho 0.9997353553772
scalar FogSequentialForward.fog[12].server[0] congestionRatio 0
scalar FogSequentialForward.fog[12].server[0] totalJobs 9034
scalar FogSequentialForward.fog[12].server[0] droppedJobsQueue 6
scalar FogSequentialForward.fog[12].server[0] droppedJobsTimout 0
scalar FogSequentialForward.fog[12].server[0] droppedJobsSLA 5675
scalar FogSequentialForward.fog[12].server[0] droppedJobsTotal 5681
scalar FogSequentialForward.fog[13].dispatcher localJobs 9000
scalar FogSequentialForward.fog[13].dispatcher internalJobs 8925
scalar FogSequentialForward.fog[13].dispatcher externalJobs 1006
scalar FogSequentialForward.fog[13].dispatcher remoteJobs 931
scalar FogSequentialForward.fog[13].dispatcher probeQueries 0
scalar FogSequentialForward.fog[13].dispatcher probeAnswers 0
scalar FogSequentialForward.fog[13].dispatcher droppedJobsSLA 0
scalar FogSequentialForward.fog[13].dispatcher jobs_class_1 9931
scalar FogSequentialForward.fog[13].dispatcher remoteJobs_class_1 931
scalar FogSequentialForward.fog[13].dispatcher localJobs_class_1 9000
scalar FogSequentialForward.fog[13].server[0] rho 1
scalar FogSequentialForward.fog[13].server[0] congestionRatio 0
scalar FogSequentialForward.fog[13].server[0] totalJobs 9000
scalar FogSequentialForward.fog[13].server[0] droppedJobsQueue 6
scalar FogSequentialForward.fog[13].server[0] droppedJobsTimout 0
scalar FogSequentialForward.fog[13].server[0] droppedJobsSLA 5608
scalar FogSequentialForward.fog[13].server[0] droppedJobsTotal 5614
scalar FogSequentialForward.fog[14].dispatcher localJobs 9011
scalar FogSequentialForward.fog[14].dispatcher internalJobs 9054
scalar FogSequentialForward.fog[14].dispatcher externalJobs 951
scalar FogSequentialForward.fog[14].dispatcher remoteJobs 994
scalar FogSequentialForward.fog[14].dispatcher probeQueries 0
scalar FogSequentialForward.fog[14].dispatcher probeAnswers 0
scalar FogSequentialForward.fog[14].dispatcher droppedJobsSLA 0
scalar FogSequentialForward.fog[14].dispatcher jobs_class_1 10005
scalar FogSequentialForward.fog[14].dispatcher remoteJobs_class_1 994
scalar FogSequentialForward.fog[14].dispatcher localJobs_class_1 9011
scalar FogSequentialForward.fog[14].server[0] rho 0.99999135732651
scalar FogSequentialForward.fog[14].server[0] congestionRatio 0
scalar FogSequentialForward.fog[14].server[0] totalJobs 9011
scalar FogSequentialForward.fog[14].server[0] droppedJobsQueue 4
scalar FogSequentialForward.fog[14].server[0] droppedJobsTimout 0
scalar FogSequentialForward.fog[14].server[0] droppedJobsSLA 5672
scalar FogSequentialForward.fog[14].server[0] droppedJobsTotal 5676
scalar FogSequentialForward.fog[15].dispatcher localJobs 9044
scalar FogSequentialForward.fog[15].dispatcher internalJobs 9080
scalar FogSequentialForward.fog[15].dispatcher externalJobs 1000
scalar FogSequentialForward.fog[15].dispatcher remoteJobs 1036
scalar FogSequentialForward.fog[15].dispatcher probeQueries 0
scalar FogSequentialForward.fog[15].dispatcher probeAnswers 0
scalar FogSequentialForward.fog[15].dispatcher droppedJobsSLA 0
scalar FogSequentialForward.fog[15].dispatcher jobs_class_1 10080
scalar FogSequentialForward.fog[15].dispatcher remoteJobs_class_1 1036
scalar FogSequentialForward.fog[15].dispatcher localJobs_class_1 9044
scalar FogSequentialForward.fog[15].server[0] rho 0.99973767995834
scalar FogSequentialForward.fog[15].server[0] congestionRatio 0
scalar FogSequentialForward.fog[15].server[0] totalJobs 9044
scalar FogSequentialForward.fog[15].server[0] droppedJobsQueue 6
scalar FogSequentialForward.fog[15].server[0] droppedJobsTimout 0
scalar FogSequentialForward.fog[15].server[0] droppedJobsSLA 5731
scalar FogSequentialForward.fog[15].server[0] droppedJobsTotal 5737
scalar FogSequentialForward.fog[16].dispatcher localJobs 8963
scalar FogSequentialForward.fog[16].dispatcher internalJobs 8968
scalar FogSequentialForward.fog[16].dispatcher externalJobs 971
scalar FogSequentialForward.fog[16].dispatcher remoteJobs 976
scalar FogSequentialForward.fog[16].dispatcher probeQueries 0
scalar FogSequentialForward.fog[16].dispatcher probeAnswers 0
scalar FogSequentialForward.fog[16].dispatcher droppedJobsSLA 0
scalar FogSequentialForward.fog[16].dispatcher jobs_class_1 9939
scalar FogSequentialForward.fog[16].dispatcher remoteJobs_class_1 976
scalar FogSequentialForward.fog[16].dispatcher localJobs_class_1 8963
scalar FogSequentialForward.fog[16].server[0] rho 1
scalar FogSequentialForward.fog[16].server[0] congestionRatio 0
scalar FogSequentialForward.fog[16].server[0] totalJobs 8963
scalar FogSequentialForward.fog[16].server[0] droppedJobsQueue 4
scalar FogSequentialForward.fog[16].server[0] droppedJobsTimout 0
scalar FogSequentialForward.fog[16].server[0] droppedJobsSLA 5638
scalar FogSequentialForward.fog[16].server[0] droppedJobsTotal 5642
scalar FogSequentialForward.fog[17].dispatcher localJobs 8991
scalar FogSequentialForward.fog[17].dispatcher internalJobs 9047
scalar FogSequentialForward.fog[17].dispatcher externalJobs 952
scalar FogSequentialForward.fog[17].dispatcher remoteJobs 1008
scalar FogSequentialForward.fog[17].dispatcher probeQueries 0
scalar FogSequentialForward.fog[17].dispatcher probeAnswers 0
scalar FogSequentialForward.fog[17].dispatcher droppedJobsSLA 0
scalar FogSequentialForward.fog[17].dispatcher jobs_class_1 9999
scalar FogSequentialForward.fog[17].dispatcher remoteJobs_class_1 1008
scalar FogSequentialForward.fog[17].dispatcher localJobs_class_1 8991
scalar FogSequentialForward.fog[17].server[0] rho 0.99958717823029
scalar FogSequentialForward.fog[17].server[0] congestionRatio 0
scalar FogSequentialForward.fog[17].server[0] totalJobs 8991
scalar FogSequentialForward.fog[17].server[0] droppedJobsQueue 6
scalar FogSequentialForward.fog[17].server[0] droppedJobsTimout 0
scalar FogSequentialForward.fog[17].server[0] droppedJobsSLA 5494
scalar FogSequentialForward.fog[17].server[0] droppedJobsTotal 5500
scalar FogSequentialForward.fog[18].dispatcher localJobs 9038
scalar FogSequentialForward.fog[18].dispatcher internalJobs 9169
scalar FogSequentialForward.fog[18].dispatcher externalJobs 948
scalar FogSequentialForward.fog[18].dispatcher remoteJobs 1079
scalar FogSequentialForward.fog[18].dispatcher probeQueries 0
scalar FogSequentialForward.fog[18].dispatcher probeAnswers 0
scalar FogSequentialForward.fog[18].dispatcher droppedJobsSLA 0
scalar FogSequentialForward.fog[18].dispatcher jobs_class_1 10117
scalar FogSequentialForward.fog[18].dispatcher remoteJobs_class_1 1079
scalar FogSequentialForward.fog[18].dispatcher localJobs_class_1 9038
scalar FogSequentialForward.fog[18].server[0] rho 0.99983876943588
scalar FogSequentialForward.fog[18].server[0] congestionRatio 0
scalar FogSequentialForward.fog[18].server[0] totalJobs 9038
scalar FogSequentialForward.fog[18].server[0] droppedJobsQueue 5
scalar FogSequentialForward.fog[18].server[0] droppedJobsTimout 0
scalar FogSequentialForward.fog[18].server[0] droppedJobsSLA 5685
scalar FogSequentialForward.fog[18].server[0] droppedJobsTotal 5690
scalar FogSequentialForward.fog[19].dispatcher localJobs 9015
scalar FogSequentialForward.fog[19].dispatcher internalJobs 9042
scalar FogSequentialForward.fog[19].dispatcher externalJobs 962
scalar FogSequentialForward.fog[19].dispatcher remoteJobs 989
scalar FogSequentialForward.fog[19].dispatcher probeQueries 0
scalar FogSequentialForward.fog[19].dispatcher probeAnswers 0
scalar FogSequentialForward.fog[19].dispatcher droppedJobsSLA 0
scalar FogSequentialForward.fog[19].dispatcher jobs_class_1 10004
scalar FogSequentialForward.fog[19].dispatcher remoteJobs_class_1 989
scalar FogSequentialForward.fog[19].dispatcher localJobs_class_1 9015
scalar FogSequentialForward.fog[19].server[0] rho 0.99986177682877
scalar FogSequentialForward.fog[19].server[0] congestionRatio 0
scalar FogSequentialForward.fog[19].server[0] totalJobs 9015
scalar FogSequentialForward.fog[19].server[0] droppedJobsQueue 3
scalar FogSequentialForward.fog[19].server[0] droppedJobsTimout 0
scalar FogSequentialForward.fog[19].server[0] droppedJobsSLA 5701
scalar FogSequentialForward.fog[19].server[0] droppedJobsTotal 5704
scalar FogSequentialForward.fog[20].dispatcher localJobs 9001
scalar FogSequentialForward.fog[20].dispatcher internalJobs 9061
scalar FogSequentialForward.fog[20].dispatcher externalJobs 973
scalar FogSequentialForward.fog[20].dispatcher remoteJobs 1033
scalar FogSequentialForward.fog[20].dispatcher probeQueries 0
scalar FogSequentialForward.fog[20].dispatcher probeAnswers 0
scalar FogSequentialForward.fog[20].dispatcher droppedJobsSLA 0
scalar FogSequentialForward.fog[20].dispatcher jobs_class_1 10034
scalar FogSequentialForward.fog[20].dispatcher remoteJobs_class_1 1033
scalar FogSequentialForward.fog[20].dispatcher localJobs_class_1 9001
scalar FogSequentialForward.fog[20].server[0] rho 0.99984985589981
scalar FogSequentialForward.fog[20].server[0] congestionRatio 0
scalar FogSequentialForward.fog[20].server[0] totalJobs 9001
scalar FogSequentialForward.fog[20].server[0] droppedJobsQueue 4
scalar FogSequentialForward.fog[20].server[0] droppedJobsTimout 0
scalar FogSequentialForward.fog[20].server[0] droppedJobsSLA 5616
scalar FogSequentialForward.fog[20].server[0] droppedJobsTotal 5620
scalar FogSequentialForward.fog[21].dispatcher localJobs 8987
scalar FogSequentialForward.fog[21].dispatcher internalJobs 8971
scalar FogSequentialForward.fog[21].dispatcher externalJobs 946
scalar FogSequentialForward.fog[21].dispatcher remoteJobs 930
scalar FogSequentialForward.fog[21].dispatcher probeQueries 0
scalar FogSequentialForward.fog[21].dispatcher probeAnswers 0
scalar FogSequentialForward.fog[21].dispatcher droppedJobsSLA 0
scalar FogSequentialForward.fog[21].dispatcher jobs_class_1 9917
scalar FogSequentialForward.fog[21].dispatcher remoteJobs_class_1 930
scalar FogSequentialForward.fog[21].dispatcher localJobs_class_1 8987
scalar FogSequentialForward.fog[21].server[0] rho 1
scalar FogSequentialForward.fog[21].server[0] congestionRatio 0
scalar FogSequentialForward.fog[21].server[0] totalJobs 8987
scalar FogSequentialForward.fog[21].server[0] droppedJobsQueue 5
scalar FogSequentialForward.fog[21].server[0] droppedJobsTimout 0
scalar FogSequentialForward.fog[21].server[0] droppedJobsSLA 5632
scalar FogSequentialForward.fog[21].server[0] droppedJobsTotal 5637
scalar FogSequentialForward.fog[22].dispatcher localJobs 8933
scalar FogSequentialForward.fog[22].dispatcher internalJobs 8903
scalar FogSequentialForward.fog[22].dispatcher externalJobs 981
scalar FogSequentialForward.fog[22].dispatcher remoteJobs 951
scalar FogSequentialForward.fog[22].dispatcher probeQueries 0
scalar FogSequentialForward.fog[22].dispatcher probeAnswers 0
scalar FogSequentialForward.fog[22].dispatcher droppedJobsSLA 0
scalar FogSequentialForward.fog[22].dispatcher jobs_class_1 9884
scalar FogSequentialForward.fog[22].dispatcher remoteJobs_class_1 951
scalar FogSequentialForward.fog[22].dispatcher localJobs_class_1 8933
scalar FogSequentialForward.fog[22].server[0] rho 0.99983930587769
scalar FogSequentialForward.fog[22].server[0] congestionRatio 0
scalar FogSequentialForward.fog[22].server[0] totalJobs 8933
scalar FogSequentialForward.fog[22].server[0] droppedJobsQueue 6
scalar FogSequentialForward.fog[22].server[0] droppedJobsTimout 0
scalar FogSequentialForward.fog[22].server[0] droppedJobsSLA 5420
scalar FogSequentialForward.fog[22].server[0] droppedJobsTotal 5426
scalar FogSequentialForward.fog[23].dispatcher localJobs 8981
scalar FogSequentialForward.fog[23].dispatcher internalJobs 8957
scalar FogSequentialForward.fog[23].dispatcher externalJobs 960
scalar FogSequentialForward.fog[23].dispatcher remoteJobs 936
scalar FogSequentialForward.fog[23].dispatcher probeQueries 0
scalar FogSequentialForward.fog[23].dispatcher probeAnswers 0
scalar FogSequentialForward.fog[23].dispatcher droppedJobsSLA 0
scalar FogSequentialForward.fog[23].dispatcher jobs_class_1 9917
scalar FogSequentialForward.fog[23].dispatcher remoteJobs_class_1 936
scalar FogSequentialForward.fog[23].dispatcher localJobs_class_1 8981
scalar FogSequentialForward.fog[23].server[0] rho 0.9998345375061
scalar FogSequentialForward.fog[23].server[0] congestionRatio 0
scalar FogSequentialForward.fog[23].server[0] totalJobs 8981
scalar FogSequentialForward.fog[23].server[0] droppedJobsQueue 5
scalar FogSequentialForward.fog[23].server[0] droppedJobsTimout 0
scalar FogSequentialForward.fog[23].server[0] droppedJobsSLA 5605
scalar FogSequentialForward.fog[23].server[0] droppedJobsTotal 5610
scalar FogSequentialForward.fog[24].dispatcher localJobs 8965
scalar FogSequentialForward.fog[24].dispatcher internalJobs 9014
scalar FogSequentialForward.fog[24].dispatcher externalJobs 941
scalar FogSequentialForward.fog[24].dispatcher remoteJobs 990
scalar FogSequentialForward.fog[24].dispatcher probeQueries 0
scalar FogSequentialForward.fog[24].dispatcher probeAnswers 0
scalar FogSequentialForward.fog[24].dispatcher droppedJobsSLA 0
scalar FogSequentialForward.fog[24].dispatcher jobs_class_1 9955
scalar FogSequentialForward.fog[24].dispatcher remoteJobs_class_1 990
scalar FogSequentialForward.fog[24].dispatcher localJobs_class_1 8965
scalar FogSequentialForward.fog[24].server[0] rho 1
scalar FogSequentialForward.fog[24].server[0] congestionRatio 0
scalar FogSequentialForward.fog[24].server[0] totalJobs 8965
scalar FogSequentialForward.fog[24].server[0] droppedJobsQueue 4
scalar FogSequentialForward.fog[24].server[0] droppedJobsTimout 0
scalar FogSequentialForward.fog[24].server[0] droppedJobsSLA 5559
scalar FogSequentialForward.fog[24].server[0] droppedJobsTotal 5563
scalar FogSequentialForward.fog[25].dispatcher localJobs 8999
scalar FogSequentialForward.fog[25].dispatcher internalJobs 9038
scalar FogSequentialForward.fog[25].dispatcher externalJobs 956
scalar FogSequentialForward.fog[25].dispatcher remoteJobs 995
scalar FogSequentialForward.fog[25].dispatcher probeQueries 0
scalar FogSequentialForward.fog[25].dispatcher probeAnswers 0
scalar FogSequentialForward.fog[25].dispatcher droppedJobsSLA 0
scalar FogSequentialForward.fog[25].dispatcher jobs_class_1 9994
scalar FogSequentialForward.fog[25].dispatcher remoteJobs_class_1 995
scalar FogSequentialForward.fog[25].dispatcher localJobs_class_1 8999
scalar FogSequentialForward.fog[25].server[0] rho 1
scalar FogSequentialForward.fog[25].server[0] congestionRatio 0
scalar FogSequentialForward.fog[25].server[0] totalJobs 8999
scalar FogSequentialForward.fog[25].server[0] droppedJobsQueue 0
scalar FogSequentialForward.fog[25].server[0] droppedJobsTimout 0
scalar FogSequentialForward.fog[25].server[0] droppedJobsSLA 5620
scalar FogSequentialForward.fog[25].server[0] droppedJobsTotal 5620
scalar FogSequentialForward.fog[26].dispatcher localJobs 9023
scalar FogSequentialForward.fog[26].dispatcher internalJobs 9055
scalar FogSequentialForward.fog[26].dispatcher externalJobs 984
scalar FogSequentialForward.fog[26].dispatcher remoteJobs 1016
scalar FogSequentialForward.fog[26].dispatcher probeQueries 0
scalar FogSequentialForward.fog[26].dispatcher probeAnswers 0
scalar FogSequentialForward.fog[26].dispatcher droppedJobsSLA 0
scalar FogSequentialForward.fog[26].dispatcher jobs_class_1 10039
scalar FogSequentialForward.fog[26].dispatcher remoteJobs_class_1 1016
scalar FogSequentialForward.fog[26].dispatcher localJobs_class_1 9023
scalar FogSequentialForward.fog[26].server[0] rho 1
scalar FogSequentialForward.fog[26].server[0] congestionRatio 0
scalar FogSequentialForward.fog[26].server[0] totalJobs 9023
scalar FogSequentialForward.fog[26].server[0] droppedJobsQueue 6
scalar FogSequentialForward.fog[26].server[0] droppedJobsTimout 0
scalar FogSequentialForward.fog[26].server[0] droppedJobsSLA 5593
scalar FogSequentialForward.fog[26].server[0] droppedJobsTotal 5599
scalar FogSequentialForward.fog[27].dispatcher localJobs 8987
scalar FogSequentialForward.fog[27].dispatcher internalJobs 8896
scalar FogSequentialForward.fog[27].dispatcher externalJobs 982
scalar FogSequentialForward.fog[27].dispatcher remoteJobs 891
scalar FogSequentialForward.fog[27].dispatcher probeQueries 0
scalar FogSequentialForward.fog[27].dispatcher probeAnswers 0
scalar FogSequentialForward.fog[27].dispatcher droppedJobsSLA 0
scalar FogSequentialForward.fog[27].dispatcher jobs_class_1 9878
scalar FogSequentialForward.fog[27].dispatcher remoteJobs_class_1 891
scalar FogSequentialForward.fog[27].dispatcher localJobs_class_1 8987
scalar FogSequentialForward.fog[27].server[0] rho 0.99965846538544
scalar FogSequentialForward.fog[27].server[0] congestionRatio 0
scalar FogSequentialForward.fog[27].server[0] totalJobs 8987
scalar FogSequentialForward.fog[27].server[0] droppedJobsQueue 5
scalar FogSequentialForward.fog[27].server[0] droppedJobsTimout 0
scalar FogSequentialForward.fog[27].server[0] droppedJobsSLA 5627
scalar FogSequentialForward.fog[27].server[0] droppedJobsTotal 5632
scalar FogSequentialForward.fog[28].dispatcher localJobs 8971
scalar FogSequentialForward.fog[28].dispatcher internalJobs 9015
scalar FogSequentialForward.fog[28].dispatcher externalJobs 910
scalar FogSequentialForward.fog[28].dispatcher remoteJobs 954
scalar FogSequentialForward.fog[28].dispatcher probeQueries 0
scalar FogSequentialForward.fog[28].dispatcher probeAnswers 0
scalar FogSequentialForward.fog[28].dispatcher droppedJobsSLA 0
scalar FogSequentialForward.fog[28].dispatcher jobs_class_1 9925
scalar FogSequentialForward.fog[28].dispatcher remoteJobs_class_1 954
scalar FogSequentialForward.fog[28].dispatcher localJobs_class_1 8971
scalar FogSequentialForward.fog[28].server[0] rho 0.99977153539658
scalar FogSequentialForward.fog[28].server[0] congestionRatio 0
scalar FogSequentialForward.fog[28].server[0] totalJobs 8971
scalar FogSequentialForward.fog[28].server[0] droppedJobsQueue 9
scalar FogSequentialForward.fog[28].server[0] droppedJobsTimout 0
scalar FogSequentialForward.fog[28].server[0] droppedJobsSLA 5593
scalar FogSequentialForward.fog[28].server[0] droppedJobsTotal 5602
scalar FogSequentialForward.fog[29].dispatcher localJobs 9043
scalar FogSequentialForward.fog[29].dispatcher internalJobs 9055
scalar FogSequentialForward.fog[29].dispatcher externalJobs 978
scalar FogSequentialForward.fog[29].dispatcher remoteJobs 990
scalar FogSequentialForward.fog[29].dispatcher probeQueries 0
scalar FogSequentialForward.fog[29].dispatcher probeAnswers 0
scalar FogSequentialForward.fog[29].dispatcher droppedJobsSLA 0
scalar FogSequentialForward.fog[29].dispatcher jobs_class_1 10033
scalar FogSequentialForward.fog[29].dispatcher remoteJobs_class_1 990
scalar FogSequentialForward.fog[29].dispatcher localJobs_class_1 9043
scalar FogSequentialForward.fog[29].server[0] rho 1
scalar FogSequentialForward.fog[29].server[0] congestionRatio 0
scalar FogSequentialForward.fog[29].server[0] totalJobs 9043
scalar FogSequentialForward.fog[29].server[0] droppedJobsQueue 9
scalar FogSequentialForward.fog[29].server[0] droppedJobsTimout 0
scalar FogSequentialForward.fog[29].server[0] droppedJobsSLA 5706
scalar FogSequentialForward.fog[29].server[0] droppedJobsTotal 5715
scalar FogSequentialForward.fog[30].dispatcher localJobs 9110
scalar FogSequentialForward.fog[30].dispatcher internalJobs 9201
scalar FogSequentialForward.fog[30].dispatcher externalJobs 987
scalar FogSequentialForward.fog[30].dispatcher remoteJobs 1078
scalar FogSequentialForward.fog[30].dispatcher probeQueries 0
scalar FogSequentialForward.fog[30].dispatcher probeAnswers 0
scalar FogSequentialForward.fog[30].dispatcher droppedJobsSLA 0
scalar FogSequentialForward.fog[30].dispatcher jobs_class_1 10188
scalar FogSequentialForward.fog[30].dispatcher remoteJobs_class_1 1078
scalar FogSequentialForward.fog[30].dispatcher localJobs_class_1 9110
scalar FogSequentialForward.fog[30].server[0] rho 1
scalar FogSequentialForward.fog[30].server[0] congestionRatio 0
scalar FogSequentialForward.fog[30].server[0] totalJobs 9110
scalar FogSequentialForward.fog[30].server[0] droppedJobsQueue 6
scalar FogSequentialForward.fog[30].server[0] droppedJobsTimout 0
scalar FogSequentialForward.fog[30].server[0] droppedJobsSLA 5769
scalar FogSequentialForward.fog[30].server[0] droppedJobsTotal 5775
scalar FogSequentialForward.fog[31].dispatcher localJobs 9016
scalar FogSequentialForward.fog[31].dispatcher internalJobs 8999
scalar FogSequentialForward.fog[31].dispatcher externalJobs 984
scalar FogSequentialForward.fog[31].dispatcher remoteJobs 967
scalar FogSequentialForward.fog[31].dispatcher probeQueries 0
scalar FogSequentialForward.fog[31].dispatcher probeAnswers 0
scalar FogSequentialForward.fog[31].dispatcher droppedJobsSLA 0
scalar FogSequentialForward.fog[31].dispatcher jobs_class_1 9983
scalar FogSequentialForward.fog[31].dispatcher remoteJobs_class_1 967
scalar FogSequentialForward.fog[31].dispatcher localJobs_class_1 9016
scalar FogSequentialForward.fog[31].server[0] rho 1
scalar FogSequentialForward.fog[31].server[0] congestionRatio 0
scalar FogSequentialForward.fog[31].server[0] totalJobs 9016
scalar FogSequentialForward.fog[31].server[0] droppedJobsQueue 6
scalar FogSequentialForward.fog[31].server[0] droppedJobsTimout 0
scalar FogSequentialForward.fog[31].server[0] droppedJobsSLA 5562
scalar FogSequentialForward.fog[31].server[0] droppedJobsTotal 5568
scalar FogSequentialForward.fog[32].dispatcher localJobs 9025
scalar FogSequentialForward.fog[32].dispatcher internalJobs 9091
scalar FogSequentialForward.fog[32].dispatcher externalJobs 934
scalar FogSequentialForward.fog[32].dispatcher remoteJobs 1000
scalar FogSequentialForward.fog[32].dispatcher probeQueries 0
scalar FogSequentialForward.fog[32].dispatcher probeAnswers 0
scalar FogSequentialForward.fog[32].dispatcher droppedJobsSLA 0
scalar FogSequentialForward.fog[32].dispatcher jobs_class_1 10025
scalar FogSequentialForward.fog[32].dispatcher remoteJobs_class_1 1000
scalar FogSequentialForward.fog[32].dispatcher localJobs_class_1 9025
scalar FogSequentialForward.fog[32].server[0] rho 1
scalar FogSequentialForward.fog[32].server[0] congestionRatio 0
scalar FogSequentialForward.fog[32].server[0] totalJobs 9025
scalar FogSequentialForward.fog[32].server[0] droppedJobsQueue 3
scalar FogSequentialForward.fog[32].server[0] droppedJobsTimout 0
scalar FogSequentialForward.fog[32].server[0] droppedJobsSLA 5629
scalar FogSequentialForward.fog[32].server[0] droppedJobsTotal 5632
scalar FogSequentialForward.fog[33].dispatcher localJobs 8949
scalar FogSequentialForward.fog[33].dispatcher internalJobs 8848
scalar FogSequentialForward.fog[33].dispatcher externalJobs 962
scalar FogSequentialForward.fog[33].dispatcher remoteJobs 861
scalar FogSequentialForward.fog[33].dispatcher probeQueries 0
scalar FogSequentialForward.fog[33].dispatcher probeAnswers 0
scalar FogSequentialForward.fog[33].dispatcher droppedJobsSLA 0
scalar FogSequentialForward.fog[33].dispatcher jobs_class_1 9810
scalar FogSequentialForward.fog[33].dispatcher remoteJobs_class_1 861
scalar FogSequentialForward.fog[33].dispatcher localJobs_class_1 8949
scalar FogSequentialForward.fog[33].server[0] rho 0.99957972764969
scalar FogSequentialForward.fog[33].server[0] congestionRatio 0
scalar FogSequentialForward.fog[33].server[0] totalJobs 8949
scalar FogSequentialForward.fog[33].server[0] droppedJobsQueue 2
scalar FogSequentialForward.fog[33].server[0] droppedJobsTimout 0
scalar FogSequentialForward.fog[33].server[0] droppedJobsSLA 5544
scalar FogSequentialForward.fog[33].server[0] droppedJobsTotal 5546
scalar FogSequentialForward.fog[34].dispatcher localJobs 9029
scalar FogSequentialForward.fog[34].dispatcher internalJobs 9101
scalar FogSequentialForward.fog[34].dispatcher externalJobs 928
scalar FogSequentialForward.fog[34].dispatcher remoteJobs 1000
scalar FogSequentialForward.fog[34].dispatcher probeQueries 0
scalar FogSequentialForward.fog[34].dispatcher probeAnswers 0
scalar FogSequentialForward.fog[34].dispatcher droppedJobsSLA 0
scalar FogSequentialForward.fog[34].dispatcher jobs_class_1 10029
scalar FogSequentialForward.fog[34].dispatcher remoteJobs_class_1 1000
scalar FogSequentialForward.fog[34].dispatcher localJobs_class_1 9029
scalar FogSequentialForward.fog[34].server[0] rho 0.99992311000824
scalar FogSequentialForward.fog[34].server[0] congestionRatio 0
scalar FogSequentialForward.fog[34].server[0] totalJobs 9029
scalar FogSequentialForward.fog[34].server[0] droppedJobsQueue 5
scalar FogSequentialForward.fog[34].server[0] droppedJobsTimout 0
scalar FogSequentialForward.fog[34].server[0] droppedJobsSLA 5748
scalar FogSequentialForward.fog[34].server[0] droppedJobsTotal 5753
scalar FogSequentialForward.fog[35].dispatcher localJobs 8927
scalar FogSequentialForward.fog[35].dispatcher internalJobs 8856
scalar FogSequentialForward.fog[35].dispatcher externalJobs 977
scalar FogSequentialForward.fog[35].dispatcher remoteJobs 906
scalar FogSequentialForward.fog[35].dispatcher probeQueries 0
scalar FogSequentialForward.fog[35].dispatcher probeAnswers 0
scalar FogSequentialForward.fog[35].dispatcher droppedJobsSLA 0
scalar FogSequentialForward.fog[35].dispatcher jobs_class_1 9833
scalar FogSequentialForward.fog[35].dispatcher remoteJobs_class_1 906
scalar FogSequentialForward.fog[35].dispatcher localJobs_class_1 8927
scalar FogSequentialForward.fog[35].server[0] rho 1
scalar FogSequentialForward.fog[35].server[0] congestionRatio 0
scalar FogSequentialForward.fog[35].server[0] totalJobs 8927
scalar FogSequentialForward.fog[35].server[0] droppedJobsQueue 6
scalar FogSequentialForward.fog[35].server[0] droppedJobsTimout 0
scalar FogSequentialForward.fog[35].server[0] droppedJobsSLA 5467
scalar FogSequentialForward.fog[35].server[0] droppedJobsTotal 5473
scalar FogSequentialForward.fog[36].dispatcher localJobs 9019
scalar FogSequentialForward.fog[36].dispatcher internalJobs 8996
scalar FogSequentialForward.fog[36].dispatcher externalJobs 996
scalar FogSequentialForward.fog[36].dispatcher remoteJobs 973
scalar FogSequentialForward.fog[36].dispatcher probeQueries 0
scalar FogSequentialForward.fog[36].dispatcher probeAnswers 0
scalar FogSequentialForward.fog[36].dispatcher droppedJobsSLA 0
scalar FogSequentialForward.fog[36].dispatcher jobs_class_1 9992
scalar FogSequentialForward.fog[36].dispatcher remoteJobs_class_1 973
scalar FogSequentialForward.fog[36].dispatcher localJobs_class_1 9019
scalar FogSequentialForward.fog[36].server[0] rho 0.9996509552002
scalar FogSequentialForward.fog[36].server[0] congestionRatio 0
scalar FogSequentialForward.fog[36].server[0] totalJobs 9019
scalar FogSequentialForward.fog[36].server[0] droppedJobsQueue 4
scalar FogSequentialForward.fog[36].server[0] droppedJobsTimout 0
scalar FogSequentialForward.fog[36].server[0] droppedJobsSLA 5615
scalar FogSequentialForward.fog[36].server[0] droppedJobsTotal 5619
scalar FogSequentialForward.fog[37].dispatcher localJobs 9039
scalar FogSequentialForward.fog[37].dispatcher internalJobs 9096
scalar FogSequentialForward.fog[37].dispatcher externalJobs 1001
scalar FogSequentialForward.fog[37].dispatcher remoteJobs 1058
scalar FogSequentialForward.fog[37].dispatcher probeQueries 0
scalar FogSequentialForward.fog[37].dispatcher probeAnswers 0
scalar FogSequentialForward.fog[37].dispatcher droppedJobsSLA 0
scalar FogSequentialForward.fog[37].dispatcher jobs_class_1 10097
scalar FogSequentialForward.fog[37].dispatcher remoteJobs_class_1 1058
scalar FogSequentialForward.fog[37].dispatcher localJobs_class_1 9039
scalar FogSequentialForward.fog[37].server[0] rho 0.99959880113602
scalar FogSequentialForward.fog[37].server[0] congestionRatio 0
scalar FogSequentialForward.fog[37].server[0] totalJobs 9039
scalar FogSequentialForward.fog[37].server[0] droppedJobsQueue 5
scalar FogSequentialForward.fog[37].server[0] droppedJobsTimout 0
scalar FogSequentialForward.fog[37].server[0] droppedJobsSLA 5737
scalar FogSequentialForward.fog[37].server[0] droppedJobsTotal 5742
scalar FogSequentialForward.fog[38].dispatcher localJobs 8960
scalar FogSequentialForward.fog[38].dispatcher internalJobs 8939
scalar FogSequentialForward.fog[38].dispatcher externalJobs 973
scalar FogSequentialForward.fog[38].dispatcher remoteJobs 952
scalar FogSequentialForward.fog[38].dispatcher probeQueries 0
scalar FogSequentialForward.fog[38].dispatcher probeAnswers 0
scalar FogSequentialForward.fog[38].dispatcher droppedJobsSLA 0
scalar FogSequentialForward.fog[38].dispatcher jobs_class_1 9912
scalar FogSequentialForward.fog[38].dispatcher remoteJobs_class_1 952
scalar FogSequentialForward.fog[38].dispatcher localJobs_class_1 8960
scalar FogSequentialForward.fog[38].server[0] rho 0.9999566078186
scalar FogSequentialForward.fog[38].server[0] congestionRatio 0
scalar FogSequentialForward.fog[38].server[0] totalJobs 8960
scalar FogSequentialForward.fog[38].server[0] droppedJobsQueue 5
scalar FogSequentialForward.fog[38].server[0] droppedJobsTimout 0
scalar FogSequentialForward.fog[38].server[0] droppedJobsSLA 5509
scalar FogSequentialForward.fog[38].server[0] droppedJobsTotal 5514
scalar FogSequentialForward.fog[39].dispatcher localJobs 8939
scalar FogSequentialForward.fog[39].dispatcher internalJobs 8927
scalar FogSequentialForward.fog[39].dispatcher externalJobs 1011
scalar FogSequentialForward.fog[39].dispatcher remoteJobs 999
scalar FogSequentialForward.fog[39].dispatcher probeQueries 0
scalar FogSequentialForward.fog[39].dispatcher probeAnswers 0
scalar FogSequentialForward.fog[39].dispatcher droppedJobsSLA 0
scalar FogSequentialForward.fog[39].dispatcher jobs_class_1 9938
scalar FogSequentialForward.fog[39].dispatcher remoteJobs_class_1 999
scalar FogSequentialForward.fog[39].dispatcher localJobs_class_1 8939
scalar FogSequentialForward.fog[39].server[0] rho 0.99994874000549
scalar FogSequentialForward.fog[39].server[0] congestionRatio 0
scalar FogSequentialForward.fog[39].server[0] totalJobs 8939
scalar FogSequentialForward.fog[39].server[0] droppedJobsQueue 7
scalar FogSequentialForward.fog[39].server[0] droppedJobsTimout 0
scalar FogSequentialForward.fog[39].server[0] droppedJobsSLA 5557
scalar FogSequentialForward.fog[39].server[0] droppedJobsTotal 5564
scalar FogSequentialForward.fog[40].dispatcher localJobs 8952
scalar FogSequentialForward.fog[40].dispatcher internalJobs 8907
scalar FogSequentialForward.fog[40].dispatcher externalJobs 977
scalar FogSequentialForward.fog[40].dispatcher remoteJobs 932
scalar FogSequentialForward.fog[40].dispatcher probeQueries 0
scalar FogSequentialForward.fog[40].dispatcher probeAnswers 0
scalar FogSequentialForward.fog[40].dispatcher droppedJobsSLA 0
scalar FogSequentialForward.fog[40].dispatcher jobs_class_1 9884
scalar FogSequentialForward.fog[40].dispatcher remoteJobs_class_1 932
scalar FogSequentialForward.fog[40].dispatcher localJobs_class_1 8952
scalar FogSequentialForward.fog[40].server[0] rho 1
scalar FogSequentialForward.fog[40].server[0] congestionRatio 0
scalar FogSequentialForward.fog[40].server[0] totalJobs 8952
scalar FogSequentialForward.fog[40].server[0] droppedJobsQueue 2
scalar FogSequentialForward.fog[40].server[0] droppedJobsTimout 0
scalar FogSequentialForward.fog[40].server[0] droppedJobsSLA 5520
scalar FogSequentialForward.fog[40].server[0] droppedJobsTotal 5522
scalar FogSequentialForward.fog[41].dispatcher localJobs 9000
scalar FogSequentialForward.fog[41].dispatcher internalJobs 9041
scalar FogSequentialForward.fog[41].dispatcher externalJobs 1000
scalar FogSequentialForward.fog[41].dispatcher remoteJobs 1041
scalar FogSequentialForward.fog[41].dispatcher probeQueries 0
scalar FogSequentialForward.fog[41].dispatcher probeAnswers 0
scalar FogSequentialForward.fog[41].dispatcher droppedJobsSLA 0
scalar FogSequentialForward.fog[41].dispatcher jobs_class_1 10041
scalar FogSequentialForward.fog[41].dispatcher remoteJobs_class_1 1041
scalar FogSequentialForward.fog[41].dispatcher localJobs_class_1 9000
scalar FogSequentialForward.fog[41].server[0] rho 1
scalar FogSequentialForward.fog[41].server[0] congestionRatio 0
scalar FogSequentialForward.fog[41].server[0] totalJobs 9000
scalar FogSequentialForward.fog[41].server[0] droppedJobsQueue 6
scalar FogSequentialForward.fog[41].server[0] droppedJobsTimout 0
scalar FogSequentialForward.fog[41].server[0] droppedJobsSLA 5540
scalar FogSequentialForward.fog[41].server[0] droppedJobsTotal 5546
scalar FogSequentialForward.fog[42].dispatcher localJobs 8970
scalar FogSequentialForward.fog[42].dispatcher internalJobs 8947
scalar FogSequentialForward.fog[42].dispatcher externalJobs 901
scalar FogSequentialForward.fog[42].dispatcher remoteJobs 878
scalar FogSequentialForward.fog[42].dispatcher probeQueries 0
scalar FogSequentialForward.fog[42].dispatcher probeAnswers 0
scalar FogSequentialForward.fog[42].dispatcher droppedJobsSLA 0
scalar FogSequentialForward.fog[42].dispatcher jobs_class_1 9848
scalar FogSequentialForward.fog[42].dispatcher remoteJobs_class_1 878
scalar FogSequentialForward.fog[42].dispatcher localJobs_class_1 8970
scalar FogSequentialForward.fog[42].server[0] rho 0.99995005130768
scalar FogSequentialForward.fog[42].server[0] congestionRatio 0
scalar FogSequentialForward.fog[42].server[0] totalJobs 8970
scalar FogSequentialForward.fog[42].server[0] droppedJobsQueue 6
scalar FogSequentialForward.fog[42].server[0] droppedJobsTimout 0
scalar FogSequentialForward.fog[42].server[0] droppedJobsSLA 5612
scalar FogSequentialForward.fog[42].server[0] droppedJobsTotal 5618
scalar FogSequentialForward.fog[43].dispatcher localJobs 8986
scalar FogSequentialForward.fog[43].dispatcher internalJobs 9010
scalar FogSequentialForward.fog[43].dispatcher externalJobs 937
scalar FogSequentialForward.fog[43].dispatcher remoteJobs 961
scalar FogSequentialForward.fog[43].dispatcher probeQueries 0
scalar FogSequentialForward.fog[43].dispatcher probeAnswers 0
scalar FogSequentialForward.fog[43].dispatcher droppedJobsSLA 0
scalar FogSequentialForward.fog[43].dispatcher jobs_class_1 9947
scalar FogSequentialForward.fog[43].dispatcher remoteJobs_class_1 961
scalar FogSequentialForward.fog[43].dispatcher localJobs_class_1 8986
scalar FogSequentialForward.fog[43].server[0] rho 0.99971777200699
scalar FogSequentialForward.fog[43].server[0] congestionRatio 0
scalar FogSequentialForward.fog[43].server[0] totalJobs 8986
scalar FogSequentialForward.fog[43].server[0] droppedJobsQueue 7
scalar FogSequentialForward.fog[43].server[0] droppedJobsTimout 0
scalar FogSequentialForward.fog[43].server[0] droppedJobsSLA 5589
scalar FogSequentialForward.fog[43].server[0] droppedJobsTotal 5596
scalar FogSequentialForward.fog[44].dispatcher localJobs 8987
scalar FogSequentialForward.fog[44].dispatcher internalJobs 8914
scalar FogSequentialForward.fog[44].dispatcher externalJobs 990
scalar FogSequentialForward.fog[44].dispatcher remoteJobs 917
scalar FogSequentialForward.fog[44].dispatcher probeQueries 0
scalar FogSequentialForward.fog[44].dispatcher probeAnswers 0
scalar FogSequentialForward.fog[44].dispatcher droppedJobsSLA 0
scalar FogSequentialForward.fog[44].dispatcher jobs_class_1 9904
scalar FogSequentialForward.fog[44].dispatcher remoteJobs_class_1 917
scalar FogSequentialForward.fog[44].dispatcher localJobs_class_1 8987
scalar FogSequentialForward.fog[44].server[0] rho 0.9999070763588
scalar FogSequentialForward.fog[44].server[0] congestionRatio 0
scalar FogSequentialForward.fog[44].server[0] totalJobs 8987
scalar FogSequentialForward.fog[44].server[0] droppedJobsQueue 6
scalar FogSequentialForward.fog[44].server[0] droppedJobsTimout 0
scalar FogSequentialForward.fog[44].server[0] droppedJobsSLA 5629
scalar FogSequentialForward.fog[44].server[0] droppedJobsTotal 5635
scalar FogSequentialForward.fog[45].dispatcher localJobs 9080
scalar FogSequentialForward.fog[45].dispatcher internalJobs 9099
scalar FogSequentialForward.fog[45].dispatcher externalJobs 939
scalar FogSequentialForward.fog[45].dispatcher remoteJobs 958
scalar FogSequentialForward.fog[45].dispatcher probeQueries 0
scalar FogSequentialForward.fog[45].dispatcher probeAnswers 0
scalar FogSequentialForward.fog[45].dispatcher droppedJobsSLA 0
scalar FogSequentialForward.fog[45].dispatcher jobs_class_1 10038
scalar FogSequentialForward.fog[45].dispatcher remoteJobs_class_1 958
scalar FogSequentialForward.fog[45].dispatcher localJobs_class_1 9080
scalar FogSequentialForward.fog[45].server[0] rho 1
scalar FogSequentialForward.fog[45].server[0] congestionRatio 0
scalar FogSequentialForward.fog[45].server[0] totalJobs 9080
scalar FogSequentialForward.fog[45].server[0] droppedJobsQueue 2
scalar FogSequentialForward.fog[45].server[0] droppedJobsTimout 0
scalar FogSequentialForward.fog[45].server[0] droppedJobsSLA 5796
scalar FogSequentialForward.fog[45].server[0] droppedJobsTotal 5798
scalar FogSequentialForward.fog[46].dispatcher localJobs 8956
scalar FogSequentialForward.fog[46].dispatcher internalJobs 8918
scalar FogSequentialForward.fog[46].dispatcher externalJobs 982
scalar FogSequentialForward.fog[46].dispatcher remoteJobs 944
scalar FogSequentialForward.fog[46].dispatcher probeQueries 0
scalar FogSequentialForward.fog[46].dispatcher probeAnswers 0
scalar FogSequentialForward.fog[46].dispatcher droppedJobsSLA 0
scalar FogSequentialForward.fog[46].dispatcher jobs_class_1 9900
scalar FogSequentialForward.fog[46].dispatcher remoteJobs_class_1 944
scalar FogSequentialForward.fog[46].dispatcher localJobs_class_1 8956
scalar FogSequentialForward.fog[46].server[0] rho 0.99972456693649
scalar FogSequentialForward.fog[46].server[0] congestionRatio 0
scalar FogSequentialForward.fog[46].server[0] totalJobs 8956
scalar FogSequentialForward.fog[46].server[0] droppedJobsQueue 8
scalar FogSequentialForward.fog[46].server[0] droppedJobsTimout 0
scalar FogSequentialForward.fog[46].server[0] droppedJobsSLA 5541
scalar FogSequentialForward.fog[46].server[0] droppedJobsTotal 5549
scalar FogSequentialForward.fog[47].dispatcher localJobs 8897
scalar FogSequentialForward.fog[47].dispatcher internalJobs 8802
scalar FogSequentialForward.fog[47].dispatcher externalJobs 942
scalar FogSequentialForward.fog[47].dispatcher remoteJobs 847
scalar FogSequentialForward.fog[47].dispatcher probeQueries 0
scalar FogSequentialForward.fog[47].dispatcher probeAnswers 0
scalar FogSequentialForward.fog[47].dispatcher droppedJobsSLA 0
scalar FogSequentialForward.fog[47].dispatcher jobs_class_1 9744
scalar FogSequentialForward.fog[47].dispatcher remoteJobs_class_1 847
scalar FogSequentialForward.fog[47].dispatcher localJobs_class_1 8897
scalar FogSequentialForward.fog[47].server[0] rho 0.99989688396454
scalar FogSequentialForward.fog[47].server[0] congestionRatio 0
scalar FogSequentialForward.fog[47].server[0] totalJobs 8897
scalar FogSequentialForward.fog[47].server[0] droppedJobsQueue 7
scalar FogSequentialForward.fog[47].server[0] droppedJobsTimout 0
scalar FogSequentialForward.fog[47].server[0] droppedJobsSLA 5485
scalar FogSequentialForward.fog[47].server[0] droppedJobsTotal 5492
scalar FogSequentialForward.fog[48].dispatcher localJobs 8970
scalar FogSequentialForward.fog[48].dispatcher internalJobs 8994
scalar FogSequentialForward.fog[48].dispatcher externalJobs 950
scalar FogSequentialForward.fog[48].dispatcher remoteJobs 974
scalar FogSequentialForward.fog[48].dispatcher probeQueries 0
scalar FogSequentialForward.fog[48].dispatcher probeAnswers 0
scalar FogSequentialForward.fog[48].dispatcher droppedJobsSLA 0
scalar FogSequentialForward.fog[48].dispatcher jobs_class_1 9944
scalar FogSequentialForward.fog[48].dispatcher remoteJobs_class_1 974
scalar FogSequentialForward.fog[48].dispatcher localJobs_class_1 8970
scalar FogSequentialForward.fog[48].server[0] rho 1
scalar FogSequentialForward.fog[48].server[0] congestionRatio 0
scalar FogSequentialForward.fog[48].server[0] totalJobs 8970
scalar FogSequentialForward.fog[48].server[0] droppedJobsQueue 6
scalar FogSequentialForward.fog[48].server[0] droppedJobsTimout 0
scalar FogSequentialForward.fog[48].server[0] droppedJobsSLA 5526
scalar FogSequentialForward.fog[48].server[0] droppedJobsTotal 5532
scalar FogSequentialForward.fog[49].dispatcher localJobs 8934
scalar FogSequentialForward.fog[49].dispatcher internalJobs 8885
scalar FogSequentialForward.fog[49].dispatcher externalJobs 983
scalar FogSequentialForward.fog[49].dispatcher remoteJobs 934
scalar FogSequentialForward.fog[49].dispatcher probeQueries 0
scalar FogSequentialForward.fog[49].dispatcher probeAnswers 0
scalar FogSequentialForward.fog[49].dispatcher droppedJobsSLA 0
scalar FogSequentialForward.fog[49].dispatcher jobs_class_1 9868
scalar FogSequentialForward.fog[49].dispatcher remoteJobs_class_1 934
scalar FogSequentialForward.fog[49].dispatcher localJobs_class_1 8934
scalar FogSequentialForward.fog[49].server[0] rho 0.99970471858978
scalar FogSequentialForward.fog[49].server[0] congestionRatio 0
scalar FogSequentialForward.fog[49].server[0] totalJobs 8934
scalar FogSequentialForward.fog[49].server[0] droppedJobsQueue 7
scalar FogSequentialForward.fog[49].server[0] droppedJobsTimout 0
scalar FogSequentialForward.fog[49].server[0] droppedJobsSLA 5471
scalar FogSequentialForward.fog[49].server[0] droppedJobsTotal 5478
scalar FogSequentialForward.fog[50].dispatcher localJobs 8994
scalar FogSequentialForward.fog[50].dispatcher internalJobs 9012
scalar FogSequentialForward.fog[50].dispatcher externalJobs 982
scalar FogSequentialForward.fog[50].dispatcher remoteJobs 1000
scalar FogSequentialForward.fog[50].dispatcher probeQueries 0
scalar FogSequentialForward.fog[50].dispatcher probeAnswers 0
scalar FogSequentialForward.fog[50].dispatcher droppedJobsSLA 0
scalar FogSequentialForward.fog[50].dispatcher jobs_class_1 9994
scalar FogSequentialForward.fog[50].dispatcher remoteJobs_class_1 1000
scalar FogSequentialForward.fog[50].dispatcher localJobs_class_1 8994
scalar FogSequentialForward.fog[50].server[0] rho 0.99991226196289
scalar FogSequentialForward.fog[50].server[0] congestionRatio 0
scalar FogSequentialForward.fog[50].server[0] totalJobs 8994
scalar FogSequentialForward.fog[50].server[0] droppedJobsQueue 4
scalar FogSequentialForward.fog[50].server[0] droppedJobsTimout 0
scalar FogSequentialForward.fog[50].server[0] droppedJobsSLA 5633
scalar FogSequentialForward.fog[50].server[0] droppedJobsTotal 5637
scalar FogSequentialForward.fog[51].dispatcher localJobs 9060
scalar FogSequentialForward.fog[51].dispatcher internalJobs 9125
scalar FogSequentialForward.fog[51].dispatcher externalJobs 957
scalar FogSequentialForward.fog[51].dispatcher remoteJobs 1022
scalar FogSequentialForward.fog[51].dispatcher probeQueries 0
scalar FogSequentialForward.fog[51].dispatcher probeAnswers 0
scalar FogSequentialForward.fog[51].dispatcher droppedJobsSLA 0
scalar FogSequentialForward.fog[51].dispatcher jobs_class_1 10082
scalar FogSequentialForward.fog[51].dispatcher remoteJobs_class_1 1022
scalar FogSequentialForward.fog[51].dispatcher localJobs_class_1 9060
scalar FogSequentialForward.fog[51].server[0] rho 0.9994004368782
scalar FogSequentialForward.fog[51].server[0] congestionRatio 0
scalar FogSequentialForward.fog[51].server[0] totalJobs 9060
scalar FogSequentialForward.fog[51].server[0] droppedJobsQueue 4
scalar FogSequentialForward.fog[51].server[0] droppedJobsTimout 0
scalar FogSequentialForward.fog[51].server[0] droppedJobsSLA 5747
scalar FogSequentialForward.fog[51].server[0] droppedJobsTotal 5751
scalar FogSequentialForward.fog[52].dispatcher localJobs 9010
scalar FogSequentialForward.fog[52].dispatcher internalJobs 9093
scalar FogSequentialForward.fog[52].dispatcher externalJobs 911
scalar FogSequentialForward.fog[52].dispatcher remoteJobs 994
scalar FogSequentialForward.fog[52].dispatcher probeQueries 0
scalar FogSequentialForward.fog[52].dispatcher probeAnswers 0
scalar FogSequentialForward.fog[52].dispatcher droppedJobsSLA 0
scalar FogSequentialForward.fog[52].dispatcher jobs_class_1 10004
scalar FogSequentialForward.fog[52].dispatcher remoteJobs_class_1 994
scalar FogSequentialForward.fog[52].dispatcher localJobs_class_1 9010
scalar FogSequentialForward.fog[52].server[0] rho 0.99986219406128
scalar FogSequentialForward.fog[52].server[0] congestionRatio 0
scalar FogSequentialForward.fog[52].server[0] totalJobs 9010
scalar FogSequentialForward.fog[52].server[0] droppedJobsQueue 4
scalar FogSequentialForward.fog[52].server[0] droppedJobsTimout 0
scalar FogSequentialForward.fog[52].server[0] droppedJobsSLA 5590
scalar FogSequentialForward.fog[52].server[0] droppedJobsTotal 5594
scalar FogSequentialForward.fog[53].dispatcher localJobs 9012
scalar FogSequentialForward.fog[53].dispatcher internalJobs 9051
scalar FogSequentialForward.fog[53].dispatcher externalJobs 945
scalar FogSequentialForward.fog[53].dispatcher remoteJobs 984
scalar FogSequentialForward.fog[53].dispatcher probeQueries 0
scalar FogSequentialForward.fog[53].dispatcher probeAnswers 0
scalar FogSequentialForward.fog[53].dispatcher droppedJobsSLA 0
scalar FogSequentialForward.fog[53].dispatcher jobs_class_1 9996
scalar FogSequentialForward.fog[53].dispatcher remoteJobs_class_1 984
scalar FogSequentialForward.fog[53].dispatcher localJobs_class_1 9012
scalar FogSequentialForward.fog[53].server[0] rho 0.99969041347504
scalar FogSequentialForward.fog[53].server[0] congestionRatio 0
scalar FogSequentialForward.fog[53].server[0] totalJobs 9012
scalar FogSequentialForward.fog[53].server[0] droppedJobsQueue 6
scalar FogSequentialForward.fog[53].server[0] droppedJobsTimout 0
scalar FogSequentialForward.fog[53].server[0] droppedJobsSLA 5686
scalar FogSequentialForward.fog[53].server[0] droppedJobsTotal 5692
scalar FogSequentialForward.fog[54].dispatcher localJobs 8999
scalar FogSequentialForward.fog[54].dispatcher internalJobs 8951
scalar FogSequentialForward.fog[54].dispatcher externalJobs 1015
scalar FogSequentialForward.fog[54].dispatcher remoteJobs 967
scalar FogSequentialForward.fog[54].dispatcher probeQueries 0
scalar FogSequentialForward.fog[54].dispatcher probeAnswers 0
scalar FogSequentialForward.fog[54].dispatcher droppedJobsSLA 0
scalar FogSequentialForward.fog[54].dispatcher jobs_class_1 9966
scalar FogSequentialForward.fog[54].dispatcher remoteJobs_class_1 967
scalar FogSequentialForward.fog[54].dispatcher localJobs_class_1 8999
scalar FogSequentialForward.fog[54].server[0] rho 1
scalar FogSequentialForward.fog[54].server[0] congestionRatio 0
scalar FogSequentialForward.fog[54].server[0] totalJobs 8999
scalar FogSequentialForward.fog[54].server[0] droppedJobsQueue 5
scalar FogSequentialForward.fog[54].server[0] droppedJobsTimout 0
scalar FogSequentialForward.fog[54].server[0] droppedJobsSLA 5603
scalar FogSequentialForward.fog[54].server[0] droppedJobsTotal 5608
scalar FogSequentialForward.fog[55].dispatcher localJobs 9072
scalar FogSequentialForward.fog[55].dispatcher internalJobs 9116
scalar FogSequentialForward.fog[55].dispatcher externalJobs 955
scalar FogSequentialForward.fog[55].dispatcher remoteJobs 999
scalar FogSequentialForward.fog[55].dispatcher probeQueries 0
scalar FogSequentialForward.fog[55].dispatcher probeAnswers 0
scalar FogSequentialForward.fog[55].dispatcher droppedJobsSLA 0
scalar FogSequentialForward.fog[55].dispatcher jobs_class_1 10071
scalar FogSequentialForward.fog[55].dispatcher remoteJobs_class_1 999
scalar FogSequentialForward.fog[55].dispatcher localJobs_class_1 9072
scalar FogSequentialForward.fog[55].server[0] rho 0.99985444545746
scalar FogSequentialForward.fog[55].server[0] congestionRatio 0
scalar FogSequentialForward.fog[55].server[0] totalJobs 9072
scalar FogSequentialForward.fog[55].server[0] droppedJobsQueue 6
scalar FogSequentialForward.fog[55].server[0] droppedJobsTimout 0
scalar FogSequentialForward.fog[55].server[0] droppedJobsSLA 5801
scalar FogSequentialForward.fog[55].server[0] droppedJobsTotal 5807
scalar FogSequentialForward.fog[56].dispatcher localJobs 8996
scalar FogSequentialForward.fog[56].dispatcher internalJobs 8934
scalar FogSequentialForward.fog[56].dispatcher externalJobs 1011
scalar FogSequentialForward.fog[56].dispatcher remoteJobs 949
scalar FogSequentialForward.fog[56].dispatcher probeQueries 0
scalar FogSequentialForward.fog[56].dispatcher probeAnswers 0
scalar FogSequentialForward.fog[56].dispatcher droppedJobsSLA 0
scalar FogSequentialForward.fog[56].dispatcher jobs_class_1 9945
scalar FogSequentialForward.fog[56].dispatcher remoteJobs_class_1 949
scalar FogSequentialForward.fog[56].dispatcher localJobs_class_1 8996
scalar FogSequentialForward.fog[56].server[0] rho 0.99995177984238
scalar FogSequentialForward.fog[56].server[0] congestionRatio 0
scalar FogSequentialForward.fog[56].server[0] totalJobs 8996
scalar FogSequentialForward.fog[56].server[0] droppedJobsQueue 5
scalar FogSequentialForward.fog[56].server[0] droppedJobsTimout 0
scalar FogSequentialForward.fog[56].server[0] droppedJobsSLA 5630
scalar FogSequentialForward.fog[56].server[0] droppedJobsTotal 5635
scalar FogSequentialForward.fog[57].dispatcher localJobs 9020
scalar FogSequentialForward.fog[57].dispatcher internalJobs 8959
scalar FogSequentialForward.fog[57].dispatcher externalJobs 959
scalar FogSequentialForward.fog[57].dispatcher remoteJobs 898
scalar FogSequentialForward.fog[57].dispatcher probeQueries 0
scalar FogSequentialForward.fog[57].dispatcher probeAnswers 0
scalar FogSequentialForward.fog[57].dispatcher droppedJobsSLA 0
scalar FogSequentialForward.fog[57].dispatcher jobs_class_1 9918
scalar FogSequentialForward.fog[57].dispatcher remoteJobs_class_1 898
scalar FogSequentialForward.fog[57].dispatcher localJobs_class_1 9020
scalar FogSequentialForward.fog[57].server[0] rho 0.99968326091766
scalar FogSequentialForward.fog[57].server[0] congestionRatio 0
scalar FogSequentialForward.fog[57].server[0] totalJobs 9020
scalar FogSequentialForward.fog[57].server[0] droppedJobsQueue 6
scalar FogSequentialForward.fog[57].server[0] droppedJobsTimout 0
scalar FogSequentialForward.fog[57].server[0] droppedJobsSLA 5715
scalar FogSequentialForward.fog[57].server[0] droppedJobsTotal 5721
scalar FogSequentialForward.fog[58].dispatcher localJobs 8942
scalar FogSequentialForward.fog[58].dispatcher internalJobs 8897
scalar FogSequentialForward.fog[58].dispatcher externalJobs 913
scalar FogSequentialForward.fog[58].dispatcher remoteJobs 868
scalar FogSequentialForward.fog[58].dispatcher probeQueries 0
scalar FogSequentialForward.fog[58].dispatcher probeAnswers 0
scalar FogSequentialForward.fog[58].dispatcher droppedJobsSLA 0
scalar FogSequentialForward.fog[58].dispatcher jobs_class_1 9810
scalar FogSequentialForward.fog[58].dispatcher remoteJobs_class_1 868
scalar FogSequentialForward.fog[58].dispatcher localJobs_class_1 8942
scalar FogSequentialForward.fog[58].server[0] rho 1
scalar FogSequentialForward.fog[58].server[0] congestionRatio 0
scalar FogSequentialForward.fog[58].server[0] totalJobs 8942
scalar FogSequentialForward.fog[58].server[0] droppedJobsQueue 6
scalar FogSequentialForward.fog[58].server[0] droppedJobsTimout 0
scalar FogSequentialForward.fog[58].server[0] droppedJobsSLA 5603
scalar FogSequentialForward.fog[58].server[0] droppedJobsTotal 5609
scalar FogSequentialForward.fog[59].dispatcher localJobs 8993
scalar FogSequentialForward.fog[59].dispatcher internalJobs 8980
scalar FogSequentialForward.fog[59].dispatcher externalJobs 903
scalar FogSequentialForward.fog[59].dispatcher remoteJobs 890
scalar FogSequentialForward.fog[59].dispatcher probeQueries 0
scalar FogSequentialForward.fog[59].dispatcher probeAnswers 0
scalar FogSequentialForward.fog[59].dispatcher droppedJobsSLA 0
scalar FogSequentialForward.fog[59].dispatcher jobs_class_1 9883
scalar FogSequentialForward.fog[59].dispatcher remoteJobs_class_1 890
scalar FogSequentialForward.fog[59].dispatcher localJobs_class_1 8993
scalar FogSequentialForward.fog[59].server[0] rho 0.99985188245773
scalar FogSequentialForward.fog[59].server[0] congestionRatio 0
scalar FogSequentialForward.fog[59].server[0] totalJobs 8993
scalar FogSequentialForward.fog[59].server[0] droppedJobsQueue 6
scalar FogSequentialForward.fog[59].server[0] droppedJobsTimout 0
scalar FogSequentialForward.fog[59].server[0] droppedJobsSLA 5690
scalar FogSequentialForward.fog[59].server[0] droppedJobsTotal 5696
scalar FogSequentialForward.fog[60].dispatcher localJobs 8963
scalar FogSequentialForward.fog[60].dispatcher internalJobs 8978
scalar FogSequentialForward.fog[60].dispatcher externalJobs 926
scalar FogSequentialForward.fog[60].dispatcher remoteJobs 941
scalar FogSequentialForward.fog[60].dispatcher probeQueries 0
scalar FogSequentialForward.fog[60].dispatcher probeAnswers 0
scalar FogSequentialForward.fog[60].dispatcher droppedJobsSLA 0
scalar FogSequentialForward.fog[60].dispatcher jobs_class_1 9904
scalar FogSequentialForward.fog[60].dispatcher remoteJobs_class_1 941
scalar FogSequentialForward.fog[60].dispatcher localJobs_class_1 8963
scalar FogSequentialForward.fog[60].server[0] rho 0.99996089935303
scalar FogSequentialForward.fog[60].server[0] congestionRatio 0
scalar FogSequentialForward.fog[60].server[0] totalJobs 8963
scalar FogSequentialForward.fog[60].server[0] droppedJobsQueue 5
scalar FogSequentialForward.fog[60].server[0] droppedJobsTimout 0
scalar FogSequentialForward.fog[60].server[0] droppedJobsSLA 5664
scalar FogSequentialForward.fog[60].server[0] droppedJobsTotal 5669
scalar FogSequentialForward.fog[61].dispatcher localJobs 8944
scalar FogSequentialForward.fog[61].dispatcher internalJobs 8895
scalar FogSequentialForward.fog[61].dispatcher externalJobs 1003
scalar FogSequentialForward.fog[61].dispatcher remoteJobs 954
scalar FogSequentialForward.fog[61].dispatcher probeQueries 0
scalar FogSequentialForward.fog[61].dispatcher probeAnswers 0
scalar FogSequentialForward.fog[61].dispatcher droppedJobsSLA 0
scalar FogSequentialForward.fog[61].dispatcher jobs_class_1 9898
scalar FogSequentialForward.fog[61].dispatcher remoteJobs_class_1 954
scalar FogSequentialForward.fog[61].dispatcher localJobs_class_1 8944
scalar FogSequentialForward.fog[61].server[0] rho 0.99908965826035
scalar FogSequentialForward.fog[61].server[0] congestionRatio 0
scalar FogSequentialForward.fog[61].server[0] totalJobs 8944
scalar FogSequentialForward.fog[61].server[0] droppedJobsQueue 3
scalar FogSequentialForward.fog[61].server[0] droppedJobsTimout 0
scalar FogSequentialForward.fog[61].server[0] droppedJobsSLA 5442
scalar FogSequentialForward.fog[61].server[0] droppedJobsTotal 5445
scalar FogSequentialForward.fog[62].dispatcher localJobs 8944
scalar FogSequentialForward.fog[62].dispatcher internalJobs 8909
scalar FogSequentialForward.fog[62].dispatcher externalJobs 971
scalar FogSequentialForward.fog[62].dispatcher remoteJobs 936
scalar FogSequentialForward.fog[62].dispatcher probeQueries 0
scalar FogSequentialForward.fog[62].dispatcher probeAnswers 0
scalar FogSequentialForward.fog[62].dispatcher droppedJobsSLA 0
scalar FogSequentialForward.fog[62].dispatcher jobs_class_1 9880
scalar FogSequentialForward.fog[62].dispatcher remoteJobs_class_1 936
scalar FogSequentialForward.fog[62].dispatcher localJobs_class_1 8944
scalar FogSequentialForward.fog[62].server[0] rho 0.99996852874756
scalar FogSequentialForward.fog[62].server[0] congestionRatio 0
scalar FogSequentialForward.fog[62].server[0] totalJobs 8944
scalar FogSequentialForward.fog[62].server[0] droppedJobsQueue 7
scalar FogSequentialForward.fog[62].server[0] droppedJobsTimout 0
scalar FogSequentialForward.fog[62].server[0] droppedJobsSLA 5627
scalar FogSequentialForward.fog[62].server[0] droppedJobsTotal 5634
scalar FogSequentialForward.fog[63].dispatcher localJobs 9072
scalar FogSequentialForward.fog[63].dispatcher internalJobs 9046
scalar FogSequentialForward.fog[63].dispatcher externalJobs 974
scalar FogSequentialForward.fog[63].dispatcher remoteJobs 948
scalar FogSequentialForward.fog[63].dispatcher probeQueries 0
scalar FogSequentialForward.fog[63].dispatcher probeAnswers 0
scalar FogSequentialForward.fog[63].dispatcher droppedJobsSLA 0
scalar FogSequentialForward.fog[63].dispatcher jobs_class_1 10020
scalar FogSequentialForward.fog[63].dispatcher remoteJobs_class_1 948
scalar FogSequentialForward.fog[63].dispatcher localJobs_class_1 9072
scalar FogSequentialForward.fog[63].server[0] rho 0.99971532821655
scalar FogSequentialForward.fog[63].server[0] congestionRatio 0
scalar FogSequentialForward.fog[63].server[0] totalJobs 9072
scalar FogSequentialForward.fog[63].server[0] droppedJobsQueue 4
scalar FogSequentialForward.fog[63].server[0] droppedJobsTimout 0
scalar FogSequentialForward.fog[63].server[0] droppedJobsSLA 5810
scalar FogSequentialForward.fog[63].server[0] droppedJobsTotal 5814
scalar FogSequentialForward.fog[64].dispatcher localJobs 8975
scalar FogSequentialForward.fog[64].dispatcher internalJobs 8907
scalar FogSequentialForward.fog[64].dispatcher externalJobs 977
scalar FogSequentialForward.fog[64].dispatcher remoteJobs 909
scalar FogSequentialForward.fog[64].dispatcher probeQueries 0
scalar FogSequentialForward.fog[64].dispatcher probeAnswers 0
scalar FogSequentialForward.fog[64].dispatcher droppedJobsSLA 0
scalar FogSequentialForward.fog[64].dispatcher jobs_class_1 9884
scalar FogSequentialForward.fog[64].dispatcher remoteJobs_class_1 909
scalar FogSequentialForward.fog[64].dispatcher localJobs_class_1 8975
scalar FogSequentialForward.fog[64].server[0] rho 1
scalar FogSequentialForward.fog[64].server[0] congestionRatio 0
scalar FogSequentialForward.fog[64].server[0] totalJobs 8975
scalar FogSequentialForward.fog[64].server[0] droppedJobsQueue 7
scalar FogSequentialForward.fog[64].server[0] droppedJobsTimout 0
scalar FogSequentialForward.fog[64].server[0] droppedJobsSLA 5651
scalar FogSequentialForward.fog[64].server[0] droppedJobsTotal 5658
scalar FogSequentialForward.fog[65].dispatcher localJobs 9028
scalar FogSequentialForward.fog[65].dispatcher internalJobs 9116
scalar FogSequentialForward.fog[65].dispatcher externalJobs 962
scalar FogSequentialForward.fog[65].dispatcher remoteJobs 1050
scalar FogSequentialForward.fog[65].dispatcher probeQueries 0
scalar FogSequentialForward.fog[65].dispatcher probeAnswers 0
scalar FogSequentialForward.fog[65].dispatcher droppedJobsSLA 0
scalar FogSequentialForward.fog[65].dispatcher jobs_class_1 10078
scalar FogSequentialForward.fog[65].dispatcher remoteJobs_class_1 1050
scalar FogSequentialForward.fog[65].dispatcher localJobs_class_1 9028
scalar FogSequentialForward.fog[65].server[0] rho 0.99930495023727
scalar FogSequentialForward.fog[65].server[0] congestionRatio 0
scalar FogSequentialForward.fog[65].server[0] totalJobs 9028
scalar FogSequentialForward.fog[65].server[0] droppedJobsQueue 8
scalar FogSequentialForward.fog[65].server[0] droppedJobsTimout 0
scalar FogSequentialForward.fog[65].server[0] droppedJobsSLA 5682
scalar FogSequentialForward.fog[65].server[0] droppedJobsTotal 5690
scalar FogSequentialForward.fog[66].dispatcher localJobs 9039
scalar FogSequentialForward.fog[66].dispatcher internalJobs 9050
scalar FogSequentialForward.fog[66].dispatcher externalJobs 991
scalar FogSequentialForward.fog[66].dispatcher remoteJobs 1002
scalar FogSequentialForward.fog[66].dispatcher probeQueries 0
scalar FogSequentialForward.fog[66].dispatcher probeAnswers 0
scalar FogSequentialForward.fog[66].dispatcher droppedJobsSLA 0
scalar FogSequentialForward.fog[66].dispatcher jobs_class_1 10041
scalar FogSequentialForward.fog[66].dispatcher remoteJobs_class_1 1002
scalar FogSequentialForward.fog[66].dispatcher localJobs_class_1 9039
scalar FogSequentialForward.fog[66].server[0] rho 1
scalar FogSequentialForward.fog[66].server[0] congestionRatio 0
scalar FogSequentialForward.fog[66].server[0] totalJobs 9039
scalar FogSequentialForward.fog[66].server[0] droppedJobsQueue 4
scalar FogSequentialForward.fog[66].server[0] droppedJobsTimout 0
scalar FogSequentialForward.fog[66].server[0] droppedJobsSLA 5737
scalar FogSequentialForward.fog[66].server[0] droppedJobsTotal 5741
scalar FogSequentialForward.fog[67].dispatcher localJobs 9056
scalar FogSequentialForward.fog[67].dispatcher internalJobs 9101
scalar FogSequentialForward.fog[67].dispatcher externalJobs 999
scalar FogSequentialForward.fog[67].dispatcher remoteJobs 1044
scalar FogSequentialForward.fog[67].dispatcher probeQueries 0
scalar FogSequentialForward.fog[67].dispatcher probeAnswers 0
scalar FogSequentialForward.fog[67].dispatcher droppedJobsSLA 0
scalar FogSequentialForward.fog[67].dispatcher jobs_class_1 10100
scalar FogSequentialForward.fog[67].dispatcher remoteJobs_class_1 1044
scalar FogSequentialForward.fog[67].dispatcher localJobs_class_1 9056
scalar FogSequentialForward.fog[67].server[0] rho 0.99963569641113
scalar FogSequentialForward.fog[67].server[0] congestionRatio 0
scalar FogSequentialForward.fog[67].server[0] totalJobs 9056
scalar FogSequentialForward.fog[67].server[0] droppedJobsQueue 3
scalar FogSequentialForward.fog[67].server[0] droppedJobsTimout 0
scalar FogSequentialForward.fog[67].server[0] droppedJobsSLA 5698
scalar FogSequentialForward.fog[67].server[0] droppedJobsTotal 5701
scalar FogSequentialForward.fog[68].dispatcher localJobs 9023
scalar FogSequentialForward.fog[68].dispatcher internalJobs 9159
scalar FogSequentialForward.fog[68].dispatcher externalJobs 915
scalar FogSequentialForward.fog[68].dispatcher remoteJobs 1051
scalar FogSequentialForward.fog[68].dispatcher probeQueries 0
scalar FogSequentialForward.fog[68].dispatcher probeAnswers 0
scalar FogSequentialForward.fog[68].dispatcher droppedJobsSLA 0
scalar FogSequentialForward.fog[68].dispatcher jobs_class_1 10074
scalar FogSequentialForward.fog[68].dispatcher remoteJobs_class_1 1051
scalar FogSequentialForward.fog[68].dispatcher localJobs_class_1 9023
scalar FogSequentialForward.fog[68].server[0] rho 0.99989968538284
scalar FogSequentialForward.fog[68].server[0] congestionRatio 0
scalar FogSequentialForward.fog[68].server[0] totalJobs 9023
scalar FogSequentialForward.fog[68].server[0] droppedJobsQueue 3
scalar FogSequentialForward.fog[68].server[0] droppedJobsTimout 0
scalar FogSequentialForward.fog[68].server[0] droppedJobsSLA 5693
scalar FogSequentialForward.fog[68].server[0] droppedJobsTotal 5696
scalar FogSequentialForward.fog[69].dispatcher localJobs 8966
scalar FogSequentialForward.fog[69].dispatcher internalJobs 8908
scalar FogSequentialForward.fog[69].dispatcher externalJobs 1030
scalar FogSequentialForward.fog[69].dispatcher remoteJobs 972
scalar FogSequentialForward.fog[69].dispatcher probeQueries 0
scalar FogSequentialForward.fog[69].dispatcher probeAnswers 0
scalar FogSequentialForward.fog[69].dispatcher droppedJobsSLA 0
scalar FogSequentialForward.fog[69].dispatcher jobs_class_1 9938
scalar FogSequentialForward.fog[69].dispatcher remoteJobs_class_1 972
scalar FogSequentialForward.fog[69].dispatcher localJobs_class_1 8966
scalar FogSequentialForward.fog[69].server[0] rho 0.99994438886642
scalar FogSequentialForward.fog[69].server[0] congestionRatio 0
scalar FogSequentialForward.fog[69].server[0] totalJobs 8966
scalar FogSequentialForward.fog[69].server[0] droppedJobsQueue 9
scalar FogSequentialForward.fog[69].server[0] droppedJobsTimout 0
scalar FogSequentialForward.fog[69].server[0] droppedJobsSLA 5570
scalar FogSequentialForward.fog[69].server[0] droppedJobsTotal 5579
scalar FogSequentialForward.fog[70].dispatcher localJobs 8957
scalar FogSequentialForward.fog[70].dispatcher internalJobs 8941
scalar FogSequentialForward.fog[70].dispatcher externalJobs 941
scalar FogSequentialForward.fog[70].dispatcher remoteJobs 925
scalar FogSequentialForward.fog[70].dispatcher probeQueries 0
scalar FogSequentialForward.fog[70].dispatcher probeAnswers 0
scalar FogSequentialForward.fog[70].dispatcher droppedJobsSLA 0
scalar FogSequentialForward.fog[70].dispatcher jobs_class_1 9882
scalar FogSequentialForward.fog[70].dispatcher remoteJobs_class_1 925
scalar FogSequentialForward.fog[70].dispatcher localJobs_class_1 8957
scalar FogSequentialForward.fog[70].server[0] rho 0.99989199638367
scalar FogSequentialForward.fog[70].server[0] congestionRatio 0
scalar FogSequentialForward.fog[70].server[0] totalJobs 8957
scalar FogSequentialForward.fog[70].server[0] droppedJobsQueue 7
scalar FogSequentialForward.fog[70].server[0] droppedJobsTimout 0
scalar FogSequentialForward.fog[70].server[0] droppedJobsSLA 5621
scalar FogSequentialForward.fog[70].server[0] droppedJobsTotal 5628
scalar FogSequentialForward.fog[71].dispatcher localJobs 9027
scalar FogSequentialForward.fog[71].dispatcher internalJobs 8999
scalar FogSequentialForward.fog[71].dispatcher externalJobs 1027
scalar FogSequentialForward.fog[71].dispatcher remoteJobs 999
scalar FogSequentialForward.fog[71].dispatcher probeQueries 0
scalar FogSequentialForward.fog[71].dispatcher probeAnswers 0
scalar FogSequentialForward.fog[71].dispatcher droppedJobsSLA 0
scalar FogSequentialForward.fog[71].dispatcher jobs_class_1 10026
scalar FogSequentialForward.fog[71].dispatcher remoteJobs_class_1 999
scalar FogSequentialForward.fog[71].dispatcher localJobs_class_1 9027
scalar FogSequentialForward.fog[71].server[0] rho 1
scalar FogSequentialForward.fog[71].server[0] congestionRatio 0
scalar FogSequentialForward.fog[71].server[0] totalJobs 9027
[...]
scalar FogSequentialForward.fog[82].server[0] droppedJobsTimout 0
scalar FogSequentialForward.fog[82].server[0] droppedJobsSLA 5679
scalar FogSequentialForward.fog[82].server[0] droppedJobsTotal 5683
scalar FogSequentialForward.fog[83].dispatcher localJobs 9002
scalar FogSequentialForward.fog[83].dispatcher internalJobs 9020
scalar FogSequentialForward.fog[83].dispatcher externalJobs 958
scalar FogSequentialForward.fog[83].dispatcher remoteJobs 976
scalar FogSequentialForward.fog[83].dispatcher probeQueries 0
scalar FogSequentialForward.fog[83].dispatcher probeAnswers 0
scalar FogSequentialForward.fog[83].dispatcher droppedJobsSLA 0
scalar FogSequentialForward.fog[83].dispatcher jobs_class_1 9978
scalar FogSequentialForward.fog[83].dispatcher remoteJobs_class_1 976
scalar FogSequentialForward.fog[83].dispatcher localJobs_class_1 9002
scalar FogSequentialForward.fog[83].server[0] rho 1
scalar FogSequentialForward.fog[83].server[0] congestionRatio 0
scalar FogSequentialForward.fog[83].server[0] totalJobs 9002
scalar FogSequentialForward.fog[83].server[0] droppedJobsQueue 7
scalar FogSequentialForward.fog[83].server[0] droppedJobsTimout 0
scalar FogSequentialForward.fog[83].server[0] droppedJobsSLA 5654
scalar FogSequentialForward.fog[83].server[0] droppedJobsTotal 5661
scalar FogSequentialForward.fog[84].dispatcher localJobs 8987
scalar FogSequentialForward.fog[84].dispatcher internalJobs 8934
scalar FogSequentialForward.fog[84].dispatcher externalJobs 963
scalar FogSequentialForward.fog[84].dispatcher remoteJobs 910
scalar FogSequentialForward.fog[84].dispatcher probeQueries 0
scalar FogSequentialForward.fog[84].dispatcher probeAnswers 0
scalar FogSequentialForward.fog[84].dispatcher droppedJobsSLA 0
scalar FogSequentialForward.fog[84].dispatcher jobs_class_1 9897
scalar FogSequentialForward.fog[84].dispatcher remoteJobs_class_1 910
scalar FogSequentialForward.fog[84].dispatcher localJobs_class_1 8987
scalar FogSequentialForward.fog[84].server[0] rho 0.99998939037323
scalar FogSequentialForward.fog[84].server[0] congestionRatio 0
scalar FogSequentialForward.fog[84].server[0] totalJobs 8987
scalar FogSequentialForward.fog[84].server[0] droppedJobsQueue 4
scalar FogSequentialForward.fog[84].server[0] droppedJobsTimout 0
scalar FogSequentialForward.fog[84].server[0] droppedJobsSLA 5673
scalar FogSequentialForward.fog[84].server[0] droppedJobsTotal 5677
scalar FogSequentialForward.fog[85].dispatcher localJobs 8968
scalar FogSequentialForward.fog[85].dispatcher internalJobs 8883
scalar FogSequentialForward.fog[85].dispatcher externalJobs 939
scalar FogSequentialForward.fog[85].dispatcher remoteJobs 854
scalar FogSequentialForward.fog[85].dispatcher probeQueries 0
scalar FogSequentialForward.fog[85].dispatcher probeAnswers 0
scalar FogSequentialForward.fog[85].dispatcher droppedJobsSLA 0
scalar FogSequentialForward.fog[85].dispatcher jobs_class_1 9822
scalar FogSequentialForward.fog[85].dispatcher remoteJobs_class_1 854
scalar FogSequentialForward.fog[85].dispatcher localJobs_class_1 8968
scalar FogSequentialForward.fog[85].server[0] rho 0.99966567754745
scalar FogSequentialForward.fog[85].server[0] congestionRatio 0
scalar FogSequentialForward.fog[85].server[0] totalJobs 8968
scalar FogSequentialForward.fog[85].server[0] droppedJobsQueue 4
scalar FogSequentialForward.fog[85].server[0] droppedJobsTimout 0
scalar FogSequentialForward.fog[85].server[0] droppedJobsSLA 5601
scalar FogSequentialForward.fog[85].server[0] droppedJobsTotal 5605
scalar FogSequentialForward.fog[86].dispatcher localJobs 9016
scalar FogSequentialForward.fog[86].dispatcher internalJobs 9026
scalar FogSequentialForward.fog[86].dispatcher externalJobs 937
scalar FogSequentialForward.fog[86].dispatcher remoteJobs 947
scalar FogSequentialForward.fog[86].dispatcher probeQueries 0
scalar FogSequentialForward.fog[86].dispatcher probeAnswers 0
scalar FogSequentialForward.fog[86].dispatcher droppedJobsSLA 0
scalar FogSequentialForward.fog[86].dispatcher jobs_class_1 9963
scalar FogSequentialForward.fog[86].dispatcher remoteJobs_class_1 947
scalar FogSequentialForward.fog[86].dispatcher localJobs_class_1 9016
scalar FogSequentialForward.fog[86].server[0] rho 0.99951636791229
scalar FogSequentialForward.fog[86].server[0] congestionRatio 0
scalar FogSequentialForward.fog[86].server[0] totalJobs 9016
scalar FogSequentialForward.fog[86].server[0] droppedJobsQueue 4
scalar FogSequentialForward.fog[86].server[0] droppedJobsTimout 0
scalar FogSequentialForward.fog[86].server[0] droppedJobsSLA 5659
scalar FogSequentialForward.fog[86].server[0] droppedJobsTotal 5663
scalar FogSequentialForward.fog[87].dispatcher localJobs 9053
scalar FogSequentialForward.fog[87].dispatcher internalJobs 9088
scalar FogSequentialForward.fog[87].dispatcher externalJobs 928
scalar FogSequentialForward.fog[87].dispatcher remoteJobs 963
scalar FogSequentialForward.fog[87].dispatcher probeQueries 0
scalar FogSequentialForward.fog[87].dispatcher probeAnswers 0
scalar FogSequentialForward.fog[87].dispatcher droppedJobsSLA 0
scalar FogSequentialForward.fog[87].dispatcher jobs_class_1 10016
scalar FogSequentialForward.fog[87].dispatcher remoteJobs_class_1 963
scalar FogSequentialForward.fog[87].dispatcher localJobs_class_1 9053
scalar FogSequentialForward.fog[87].server[0] rho 0.99988412857056
scalar FogSequentialForward.fog[87].server[0] congestionRatio 0
scalar FogSequentialForward.fog[87].server[0] totalJobs 9053
scalar FogSequentialForward.fog[87].server[0] droppedJobsQueue 7
scalar FogSequentialForward.fog[87].server[0] droppedJobsTimout 0
scalar FogSequentialForward.fog[87].server[0] droppedJobsSLA 5693
scalar FogSequentialForward.fog[87].server[0] droppedJobsTotal 5700
scalar FogSequentialForward.fog[88].dispatcher localJobs 9069
scalar FogSequentialForward.fog[88].dispatcher internalJobs 9096
scalar FogSequentialForward.fog[88].dispatcher externalJobs 1029
scalar FogSequentialForward.fog[88].dispatcher remoteJobs 1056
scalar FogSequentialForward.fog[88].dispatcher probeQueries 0
scalar FogSequentialForward.fog[88].dispatcher probeAnswers 0
scalar FogSequentialForward.fog[88].dispatcher droppedJobsSLA 0
scalar FogSequentialForward.fog[88].dispatcher jobs_class_1 10125
scalar FogSequentialForward.fog[88].dispatcher remoteJobs_class_1 1056
scalar FogSequentialForward.fog[88].dispatcher localJobs_class_1 9069
scalar FogSequentialForward.fog[88].server[0] rho 0.99995738267899
scalar FogSequentialForward.fog[88].server[0] congestionRatio 0
scalar FogSequentialForward.fog[88].server[0] totalJobs 9069
scalar FogSequentialForward.fog[88].server[0] droppedJobsQueue 9
scalar FogSequentialForward.fog[88].server[0] droppedJobsTimout 0
scalar FogSequentialForward.fog[88].server[0] droppedJobsSLA 5722
scalar FogSequentialForward.fog[88].server[0] droppedJobsTotal 5731
scalar FogSequentialForward.fog[89].dispatcher localJobs 8984
scalar FogSequentialForward.fog[89].dispatcher internalJobs 8937
scalar FogSequentialForward.fog[89].dispatcher externalJobs 927
scalar FogSequentialForward.fog[89].dispatcher remoteJobs 880
scalar FogSequentialForward.fog[89].dispatcher probeQueries 0
scalar FogSequentialForward.fog[89].dispatcher probeAnswers 0
scalar FogSequentialForward.fog[89].dispatcher droppedJobsSLA 0
scalar FogSequentialForward.fog[89].dispatcher jobs_class_1 9864
scalar FogSequentialForward.fog[89].dispatcher remoteJobs_class_1 880
scalar FogSequentialForward.fog[89].dispatcher localJobs_class_1 8984
scalar FogSequentialForward.fog[89].server[0] rho 1
scalar FogSequentialForward.fog[89].server[0] congestionRatio 0
scalar FogSequentialForward.fog[89].server[0] totalJobs 8984
scalar FogSequentialForward.fog[89].server[0] droppedJobsQueue 4
scalar FogSequentialForward.fog[89].server[0] droppedJobsTimout 0
scalar FogSequentialForward.fog[89].server[0] droppedJobsSLA 5583
scalar FogSequentialForward.fog[89].server[0] droppedJobsTotal 5587
scalar FogSequentialForward.fog[90].dispatcher localJobs 8952
scalar FogSequentialForward.fog[90].dispatcher internalJobs 8955
scalar FogSequentialForward.fog[90].dispatcher externalJobs 965
scalar FogSequentialForward.fog[90].dispatcher remoteJobs 968
scalar FogSequentialForward.fog[90].dispatcher probeQueries 0
scalar FogSequentialForward.fog[90].dispatcher probeAnswers 0
scalar FogSequentialForward.fog[90].dispatcher droppedJobsSLA 0
scalar FogSequentialForward.fog[90].dispatcher jobs_class_1 9920
scalar FogSequentialForward.fog[90].dispatcher remoteJobs_class_1 968
scalar FogSequentialForward.fog[90].dispatcher localJobs_class_1 8952
scalar FogSequentialForward.fog[90].server[0] rho 1
scalar FogSequentialForward.fog[90].server[0] congestionRatio 0
scalar FogSequentialForward.fog[90].server[0] totalJobs 8952
scalar FogSequentialForward.fog[90].server[0] droppedJobsQueue 7
scalar FogSequentialForward.fog[90].server[0] droppedJobsTimout 0
scalar FogSequentialForward.fog[90].server[0] droppedJobsSLA 5567
scalar FogSequentialForward.fog[90].server[0] droppedJobsTotal 5574
scalar FogSequentialForward.fog[91].dispatcher localJobs 8971
scalar FogSequentialForward.fog[91].dispatcher internalJobs 8959
scalar FogSequentialForward.fog[91].dispatcher externalJobs 965
scalar FogSequentialForward.fog[91].dispatcher remoteJobs 953
scalar FogSequentialForward.fog[91].dispatcher probeQueries 0
scalar FogSequentialForward.fog[91].dispatcher probeAnswers 0
scalar FogSequentialForward.fog[91].dispatcher droppedJobsSLA 0
scalar FogSequentialForward.fog[91].dispatcher jobs_class_1 9924
scalar FogSequentialForward.fog[91].dispatcher remoteJobs_class_1 953
scalar FogSequentialForward.fog[91].dispatcher localJobs_class_1 8971
scalar FogSequentialForward.fog[91].server[0] rho 0.999755859375
scalar FogSequentialForward.fog[91].server[0] congestionRatio 0
scalar FogSequentialForward.fog[91].server[0] totalJobs 8971
scalar FogSequentialForward.fog[91].server[0] droppedJobsQueue 5
scalar FogSequentialForward.fog[91].server[0] droppedJobsTimout 0
scalar FogSequentialForward.fog[91].server[0] droppedJobsSLA 5529
scalar FogSequentialForward.fog[91].server[0] droppedJobsTotal 5534
scalar FogSequentialForward.fog[92].dispatcher localJobs 9039
scalar FogSequentialForward.fog[92].dispatcher internalJobs 9010
scalar FogSequentialForward.fog[92].dispatcher externalJobs 950
scalar FogSequentialForward.fog[92].dispatcher remoteJobs 921
scalar FogSequentialForward.fog[92].dispatcher probeQueries 0
scalar FogSequentialForward.fog[92].dispatcher probeAnswers 0
scalar FogSequentialForward.fog[92].dispatcher droppedJobsSLA 0
scalar FogSequentialForward.fog[92].dispatcher jobs_class_1 9960
scalar FogSequentialForward.fog[92].dispatcher remoteJobs_class_1 921
scalar FogSequentialForward.fog[92].dispatcher localJobs_class_1 9039
scalar FogSequentialForward.fog[92].server[0] rho 1
scalar FogSequentialForward.fog[92].server[0] congestionRatio 0
scalar FogSequentialForward.fog[92].server[0] totalJobs 9039
scalar FogSequentialForward.fog[92].server[0] droppedJobsQueue 4
scalar FogSequentialForward.fog[92].server[0] droppedJobsTimout 0
scalar FogSequentialForward.fog[92].server[0] droppedJobsSLA 5753
scalar FogSequentialForward.fog[92].server[0] droppedJobsTotal 5757
scalar FogSequentialForward.fog[93].dispatcher localJobs 9008
scalar FogSequentialForward.fog[93].dispatcher internalJobs 8962
scalar FogSequentialForward.fog[93].dispatcher externalJobs 1047
scalar FogSequentialForward.fog[93].dispatcher remoteJobs 1001
scalar FogSequentialForward.fog[93].dispatcher probeQueries 0
scalar FogSequentialForward.fog[93].dispatcher probeAnswers 0
scalar FogSequentialForward.fog[93].dispatcher droppedJobsSLA 0
scalar FogSequentialForward.fog[93].dispatcher jobs_class_1 10009
scalar FogSequentialForward.fog[93].dispatcher remoteJobs_class_1 1001
scalar FogSequentialForward.fog[93].dispatcher localJobs_class_1 9008
scalar FogSequentialForward.fog[93].server[0] rho 0.99910825490952
scalar FogSequentialForward.fog[93].server[0] congestionRatio 0
scalar FogSequentialForward.fog[93].server[0] totalJobs 9008
scalar FogSequentialForward.fog[93].server[0] droppedJobsQueue 8
scalar FogSequentialForward.fog[93].server[0] droppedJobsTimout 0
scalar FogSequentialForward.fog[93].server[0] droppedJobsSLA 5624
scalar FogSequentialForward.fog[93].server[0] droppedJobsTotal 5632
scalar FogSequentialForward.fog[94].dispatcher localJobs 9058
scalar FogSequentialForward.fog[94].dispatcher internalJobs 9109
scalar FogSequentialForward.fog[94].dispatcher externalJobs 1011
scalar FogSequentialForward.fog[94].dispatcher remoteJobs 1062
scalar FogSequentialForward.fog[94].dispatcher probeQueries 0
scalar FogSequentialForward.fog[94].dispatcher probeAnswers 0
scalar FogSequentialForward.fog[94].dispatcher droppedJobsSLA 0
scalar FogSequentialForward.fog[94].dispatcher jobs_class_1 10120
scalar FogSequentialForward.fog[94].dispatcher remoteJobs_class_1 1062
scalar FogSequentialForward.fog[94].dispatcher localJobs_class_1 9058
scalar FogSequentialForward.fog[94].server[0] rho 1
scalar FogSequentialForward.fog[94].server[0] congestionRatio 0
scalar FogSequentialForward.fog[94].server[0] totalJobs 9058
scalar FogSequentialForward.fog[94].server[0] droppedJobsQueue 6
scalar FogSequentialForward.fog[94].server[0] droppedJobsTimout 0
scalar FogSequentialForward.fog[94].server[0] droppedJobsSLA 5703
scalar FogSequentialForward.fog[94].server[0] droppedJobsTotal 5709
scalar FogSequentialForward.fog[95].dispatcher localJobs 8970
scalar FogSequentialForward.fog[95].dispatcher internalJobs 9026
scalar FogSequentialForward.fog[95].dispatcher externalJobs 965
scalar FogSequentialForward.fog[95].dispatcher remoteJobs 1021
scalar FogSequentialForward.fog[95].dispatcher probeQueries 0
scalar FogSequentialForward.fog[95].dispatcher probeAnswers 0
scalar FogSequentialForward.fog[95].dispatcher droppedJobsSLA 0
scalar FogSequentialForward.fog[95].dispatcher jobs_class_1 9991
scalar FogSequentialForward.fog[95].dispatcher remoteJobs_class_1 1021
scalar FogSequentialForward.fog[95].dispatcher localJobs_class_1 8970
scalar FogSequentialForward.fog[95].server[0] rho 0.99943763017654
scalar FogSequentialForward.fog[95].server[0] congestionRatio 0
scalar FogSequentialForward.fog[95].server[0] totalJobs 8970
scalar FogSequentialForward.fog[95].server[0] droppedJobsQueue 10
scalar FogSequentialForward.fog[95].server[0] droppedJobsTimout 0
scalar FogSequentialForward.fog[95].server[0] droppedJobsSLA 5534
scalar FogSequentialForward.fog[95].server[0] droppedJobsTotal 5544
scalar FogSequentialForward.fog[96].dispatcher localJobs 9048
scalar FogSequentialForward.fog[96].dispatcher internalJobs 9093
scalar FogSequentialForward.fog[96].dispatcher externalJobs 1029
scalar FogSequentialForward.fog[96].dispatcher remoteJobs 1074
scalar FogSequentialForward.fog[96].dispatcher probeQueries 0
scalar FogSequentialForward.fog[96].dispatcher probeAnswers 0
scalar FogSequentialForward.fog[96].dispatcher droppedJobsSLA 0
scalar FogSequentialForward.fog[96].dispatcher jobs_class_1 10122
scalar FogSequentialForward.fog[96].dispatcher remoteJobs_class_1 1074
scalar FogSequentialForward.fog[96].dispatcher localJobs_class_1 9048
scalar FogSequentialForward.fog[96].server[0] rho 1
scalar FogSequentialForward.fog[96].server[0] congestionRatio 0
scalar FogSequentialForward.fog[96].server[0] totalJobs 9048
scalar FogSequentialForward.fog[96].server[0] droppedJobsQueue 3
scalar FogSequentialForward.fog[96].server[0] droppedJobsTimout 0
scalar FogSequentialForward.fog[96].server[0] droppedJobsSLA 5710
scalar FogSequentialForward.fog[96].server[0] droppedJobsTotal 5713
scalar FogSequentialForward.fog[97].dispatcher localJobs 9032
scalar FogSequentialForward.fog[97].dispatcher internalJobs 9082
scalar FogSequentialForward.fog[97].dispatcher externalJobs 998
scalar FogSequentialForward.fog[97].dispatcher remoteJobs 1048
scalar FogSequentialForward.fog[97].dispatcher probeQueries 0
scalar FogSequentialForward.fog[97].dispatcher probeAnswers 0
scalar FogSequentialForward.fog[97].dispatcher droppedJobsSLA 0
scalar FogSequentialForward.fog[97].dispatcher jobs_class_1 10080
scalar FogSequentialForward.fog[97].dispatcher remoteJobs_class_1 1048
scalar FogSequentialForward.fog[97].dispatcher localJobs_class_1 9032
scalar FogSequentialForward.fog[97].server[0] rho 1
scalar FogSequentialForward.fog[97].server[0] congestionRatio 0
scalar FogSequentialForward.fog[97].server[0] totalJobs 9032
scalar FogSequentialForward.fog[97].server[0] droppedJobsQueue 5
scalar FogSequentialForward.fog[97].server[0] droppedJobsTimout 0
scalar FogSequentialForward.fog[97].server[0] droppedJobsSLA 5697
scalar FogSequentialForward.fog[97].server[0] droppedJobsTotal 5702
scalar FogSequentialForward.fog[98].dispatcher localJobs 8943
scalar FogSequentialForward.fog[98].dispatcher internalJobs 8894
scalar FogSequentialForward.fog[98].dispatcher externalJobs 911
scalar FogSequentialForward.fog[98].dispatcher remoteJobs 862
scalar FogSequentialForward.fog[98].dispatcher probeQueries 0
scalar FogSequentialForward.fog[98].dispatcher probeAnswers 0
scalar FogSequentialForward.fog[98].dispatcher droppedJobsSLA 0
scalar FogSequentialForward.fog[98].dispatcher jobs_class_1 9805
scalar FogSequentialForward.fog[98].dispatcher remoteJobs_class_1 862
scalar FogSequentialForward.fog[98].dispatcher localJobs_class_1 8943
scalar FogSequentialForward.fog[98].server[0] rho 0.99999457597733
scalar FogSequentialForward.fog[98].server[0] congestionRatio 0
scalar FogSequentialForward.fog[98].server[0] totalJobs 8943
scalar FogSequentialForward.fog[98].server[0] droppedJobsQueue 4
scalar FogSequentialForward.fog[98].server[0] droppedJobsTimout 0
scalar FogSequentialForward.fog[98].server[0] droppedJobsSLA 5544
scalar FogSequentialForward.fog[98].server[0] droppedJobsTotal 5548
scalar FogSequentialForward.fog[99].dispatcher localJobs 8918
scalar FogSequentialForward.fog[99].dispatcher internalJobs 8820
scalar FogSequentialForward.fog[99].dispatcher externalJobs 957
scalar FogSequentialForward.fog[99].dispatcher remoteJobs 859
scalar FogSequentialForward.fog[99].dispatcher probeQueries 0
scalar FogSequentialForward.fog[99].dispatcher probeAnswers 0
scalar FogSequentialForward.fog[99].dispatcher droppedJobsSLA 0
scalar FogSequentialForward.fog[99].dispatcher jobs_class_1 9777
scalar FogSequentialForward.fog[99].dispatcher remoteJobs_class_1 859
scalar FogSequentialForward.fog[99].dispatcher localJobs_class_1 8918
scalar FogSequentialForward.fog[99].server[0] rho 0.99991315603256
scalar FogSequentialForward.fog[99].server[0] congestionRatio 0
scalar FogSequentialForward.fog[99].server[0] totalJobs 8918
scalar FogSequentialForward.fog[99].server[0] droppedJobsQueue 3
scalar FogSequentialForward.fog[99].server[0] droppedJobsTimout 0
scalar FogSequentialForward.fog[99].server[0] droppedJobsSLA 5434
scalar FogSequentialForward.fog[99].server[0] droppedJobsTotal 5437
scalar FogSequentialForward.sink avg_responseTime_1 14.665280011301
scalar FogSequentialForward.sink p90_responseTime_1 1.577401904163
scalar FogSequentialForward.sink med_responseTime_1 1.577401904163
scalar FogSequentialForward.sink avg_delayTime_1 0
scalar FogSequentialForward.sink p90_delayTime_1 0
scalar FogSequentialForward.sink med_delayTime_1 0
scalar FogSequentialForward.sink avg_queuingTime_1 12.98864100308
scalar FogSequentialForward.sink p90_queuingTime_1 0
scalar FogSequentialForward.sink med_queuingTime_1 0
scalar FogSequentialForward.sink avg_serviceTime_1 1.6748691963092
scalar FogSequentialForward.sink p90_serviceTime_1 1.520129461029
scalar FogSequentialForward.sink med_serviceTime_1 1.520129461029
scalar FogSequentialForward.sink avg_balancerTime_1 0.0017698119117585
scalar FogSequentialForward.sink p90_balancerTime_1 0
scalar FogSequentialForward.sink med_balancerTime_1 0
scalar FogSequentialForward.sink avg_balancerCount_1 1.1059767611831
scalar FogSequentialForward.sink p90_balancerCount_1 1
scalar FogSequentialForward.sink med_balancerCount_1 1

