version 2
run Fog-mul_10-rho_05-thr_16-3-20190714-02:25:30-91201
attr configname Fog-mul_10-rho_05-thr_16
attr datetime 20190714-02:25:30
attr experiment Fog-mul_10-rho_05-thr_16
attr inifile FogSequentialForward.ini
attr iterationvars ""
attr iterationvarsf ""
attr measurement ""
attr network FogSequentialForward
attr processid 91201
attr repetition 3
attr replication #3
attr resultdir results
attr runnumber 3
attr seedset 3
param FogSequentialForward.proctimeMul 1.0
param FogSequentialForward.rho 0.5
param FogSequentialForward.fog[*].dispatcher.thr 16
param FogSequentialForward.nSources 100
param FogSequentialForward.rho 0.9
param FogSequentialForward.proctimeMul 1.0
param FogSequentialForward.source[*].appId 1
param FogSequentialForward.source[*].realTime true
param FogSequentialForward.source[*].multiHop true
param FogSequentialForward.fog[*].nServers 1
param FogSequentialForward.fog[*].dispatcher.fanOut 1
param FogSequentialForward.fog[*].server[*].timeSlice -1s
param FogSequentialForward.fog[*].server[*].timeout -1s
param FogSequentialForward.fog[*].server[*].capacity 20
param FogSequentialForward.fog[*].server[*].fifo true
param FogSequentialForward.fog[*].server[*].maxServiceTime -1s
param FogSequentialForward.fog[*].dispatcher.thr 1

scalar FogSequentialForward.fog[0].dispatcher localJobs 9057
scalar FogSequentialForward.fog[0].dispatcher internalJobs 9207
scalar FogSequentialForward.fog[0].dispatcher externalJobs 2844
scalar FogSequentialForward.fog[0].dispatcher remoteJobs 2994
scalar FogSequentialForward.fog[0].dispatcher probeQueries 0
scalar FogSequentialForward.fog[0].dispatcher probeAnswers 0
scalar FogSequentialForward.fog[0].dispatcher droppedJobsSLA 0
scalar FogSequentialForward.fog[0].dispatcher jobs_class_1 12051
scalar FogSequentialForward.fog[0].dispatcher remoteJobs_class_1 2994
scalar FogSequentialForward.fog[0].dispatcher localJobs_class_1 9057
scalar FogSequentialForward.fog[0].server[0] rho 1
scalar FogSequentialForward.fog[0].server[0] congestionRatio 0
scalar FogSequentialForward.fog[0].server[0] totalJobs 9057
scalar FogSequentialForward.fog[0].server[0] droppedJobsQueue 1
scalar FogSequentialForward.fog[0].server[0] droppedJobsTimout 0
scalar FogSequentialForward.fog[0].server[0] droppedJobsSLA 5458
scalar FogSequentialForward.fog[0].server[0] droppedJobsTotal 5459
scalar FogSequentialForward.fog[1].dispatcher localJobs 9015
scalar FogSequentialForward.fog[1].dispatcher internalJobs 9030
scalar FogSequentialForward.fog[1].dispatcher externalJobs 2825
scalar FogSequentialForward.fog[1].dispatcher remoteJobs 2840
scalar FogSequentialForward.fog[1].dispatcher probeQueries 0
scalar FogSequentialForward.fog[1].dispatcher probeAnswers 0
scalar FogSequentialForward.fog[1].dispatcher droppedJobsSLA 0
scalar FogSequentialForward.fog[1].dispatcher jobs_class_1 11855
scalar FogSequentialForward.fog[1].dispatcher remoteJobs_class_1 2840
scalar FogSequentialForward.fog[1].dispatcher localJobs_class_1 9015
scalar FogSequentialForward.fog[1].server[0] rho 1
scalar FogSequentialForward.fog[1].server[0] congestionRatio 0
scalar FogSequentialForward.fog[1].server[0] totalJobs 9015
scalar FogSequentialForward.fog[1].server[0] droppedJobsQueue 1
scalar FogSequentialForward.fog[1].server[0] droppedJobsTimout 0
scalar FogSequentialForward.fog[1].server[0] droppedJobsSLA 5521
scalar FogSequentialForward.fog[1].server[0] droppedJobsTotal 5522
scalar FogSequentialForward.fog[2].dispatcher localJobs 8970
scalar FogSequentialForward.fog[2].dispatcher internalJobs 9002
scalar FogSequentialForward.fog[2].dispatcher externalJobs 2826
scalar FogSequentialForward.fog[2].dispatcher remoteJobs 2858
scalar FogSequentialForward.fog[2].dispatcher probeQueries 0
scalar FogSequentialForward.fog[2].dispatcher probeAnswers 0
scalar FogSequentialForward.fog[2].dispatcher droppedJobsSLA 0
scalar FogSequentialForward.fog[2].dispatcher jobs_class_1 11828
scalar FogSequentialForward.fog[2].dispatcher remoteJobs_class_1 2858
scalar FogSequentialForward.fog[2].dispatcher localJobs_class_1 8970
scalar FogSequentialForward.fog[2].server[0] rho 0.99981635808945
scalar FogSequentialForward.fog[2].server[0] congestionRatio 0
scalar FogSequentialForward.fog[2].server[0] totalJobs 8970
scalar FogSequentialForward.fog[2].server[0] droppedJobsQueue 1
scalar FogSequentialForward.fog[2].server[0] droppedJobsTimout 0
scalar FogSequentialForward.fog[2].server[0] droppedJobsSLA 5295
scalar FogSequentialForward.fog[2].server[0] droppedJobsTotal 5296
scalar FogSequentialForward.fog[3].dispatcher localJobs 8984
scalar FogSequentialForward.fog[3].dispatcher internalJobs 9084
scalar FogSequentialForward.fog[3].dispatcher externalJobs 2770
scalar FogSequentialForward.fog[3].dispatcher remoteJobs 2870
scalar FogSequentialForward.fog[3].dispatcher probeQueries 0
scalar FogSequentialForward.fog[3].dispatcher probeAnswers 0
scalar FogSequentialForward.fog[3].dispatcher droppedJobsSLA 0
scalar FogSequentialForward.fog[3].dispatcher jobs_class_1 11854
scalar FogSequentialForward.fog[3].dispatcher remoteJobs_class_1 2870
scalar FogSequentialForward.fog[3].dispatcher localJobs_class_1 8984
scalar FogSequentialForward.fog[3].server[0] rho 1
scalar FogSequentialForward.fog[3].server[0] congestionRatio 0
scalar FogSequentialForward.fog[3].server[0] totalJobs 8984
scalar FogSequentialForward.fog[3].server[0] droppedJobsQueue 1
scalar FogSequentialForward.fog[3].server[0] droppedJobsTimout 0
scalar FogSequentialForward.fog[3].server[0] droppedJobsSLA 5339
scalar FogSequentialForward.fog[3].server[0] droppedJobsTotal 5340
scalar FogSequentialForward.fog[4].dispatcher localJobs 8973
scalar FogSequentialForward.fog[4].dispatcher internalJobs 8910
scalar FogSequentialForward.fog[4].dispatcher externalJobs 2836
scalar FogSequentialForward.fog[4].dispatcher remoteJobs 2773
scalar FogSequentialForward.fog[4].dispatcher probeQueries 0
scalar FogSequentialForward.fog[4].dispatcher probeAnswers 0
scalar FogSequentialForward.fog[4].dispatcher droppedJobsSLA 0
scalar FogSequentialForward.fog[4].dispatcher jobs_class_1 11746
scalar FogSequentialForward.fog[4].dispatcher remoteJobs_class_1 2773
scalar FogSequentialForward.fog[4].dispatcher localJobs_class_1 8973
scalar FogSequentialForward.fog[4].server[0] rho 1
scalar FogSequentialForward.fog[4].server[0] congestionRatio 0
scalar FogSequentialForward.fog[4].server[0] totalJobs 8973
scalar FogSequentialForward.fog[4].server[0] droppedJobsQueue 2
scalar FogSequentialForward.fog[4].server[0] droppedJobsTimout 0
scalar FogSequentialForward.fog[4].server[0] droppedJobsSLA 5368
scalar FogSequentialForward.fog[4].server[0] droppedJobsTotal 5370
scalar FogSequentialForward.fog[5].dispatcher localJobs 8973
scalar FogSequentialForward.fog[5].dispatcher internalJobs 9072
scalar FogSequentialForward.fog[5].dispatcher externalJobs 2811
scalar FogSequentialForward.fog[5].dispatcher remoteJobs 2910
scalar FogSequentialForward.fog[5].dispatcher probeQueries 0
scalar FogSequentialForward.fog[5].dispatcher probeAnswers 0
scalar FogSequentialForward.fog[5].dispatcher droppedJobsSLA 0
scalar FogSequentialForward.fog[5].dispatcher jobs_class_1 11883
scalar FogSequentialForward.fog[5].dispatcher remoteJobs_class_1 2910
scalar FogSequentialForward.fog[5].dispatcher localJobs_class_1 8973
scalar FogSequentialForward.fog[5].server[0] rho 0.99967420101166
scalar FogSequentialForward.fog[5].server[0] congestionRatio 0
scalar FogSequentialForward.fog[5].server[0] totalJobs 8973
scalar FogSequentialForward.fog[5].server[0] droppedJobsQueue 1
scalar FogSequentialForward.fog[5].server[0] droppedJobsTimout 0
scalar FogSequentialForward.fog[5].server[0] droppedJobsSLA 5287
scalar FogSequentialForward.fog[5].server[0] droppedJobsTotal 5288
scalar FogSequentialForward.fog[6].dispatcher localJobs 8981
scalar FogSequentialForward.fog[6].dispatcher internalJobs 8887
scalar FogSequentialForward.fog[6].dispatcher externalJobs 2833
scalar FogSequentialForward.fog[6].dispatcher remoteJobs 2739
scalar FogSequentialForward.fog[6].dispatcher probeQueries 0
scalar FogSequentialForward.fog[6].dispatcher probeAnswers 0
scalar FogSequentialForward.fog[6].dispatcher droppedJobsSLA 0
scalar FogSequentialForward.fog[6].dispatcher jobs_class_1 11720
scalar FogSequentialForward.fog[6].dispatcher remoteJobs_class_1 2739
scalar FogSequentialForward.fog[6].dispatcher localJobs_class_1 8981
scalar FogSequentialForward.fog[6].server[0] rho 1
scalar FogSequentialForward.fog[6].server[0] congestionRatio 0
scalar FogSequentialForward.fog[6].server[0] totalJobs 8981
scalar FogSequentialForward.fog[6].server[0] droppedJobsQueue 1
scalar FogSequentialForward.fog[6].server[0] droppedJobsTimout 0
scalar FogSequentialForward.fog[6].server[0] droppedJobsSLA 5424
scalar FogSequentialForward.fog[6].server[0] droppedJobsTotal 5425
scalar FogSequentialForward.fog[7].dispatcher localJobs 9023
scalar FogSequentialForward.fog[7].dispatcher internalJobs 8967
scalar FogSequentialForward.fog[7].dispatcher externalJobs 2932
scalar FogSequentialForward.fog[7].dispatcher remoteJobs 2876
scalar FogSequentialForward.fog[7].dispatcher probeQueries 0
scalar FogSequentialForward.fog[7].dispatcher probeAnswers 0
scalar FogSequentialForward.fog[7].dispatcher droppedJobsSLA 0
scalar FogSequentialForward.fog[7].dispatcher jobs_class_1 11899
scalar FogSequentialForward.fog[7].dispatcher remoteJobs_class_1 2876
scalar FogSequentialForward.fog[7].dispatcher localJobs_class_1 9023
scalar FogSequentialForward.fog[7].server[0] rho 0.99980598688126
scalar FogSequentialForward.fog[7].server[0] congestionRatio 0
scalar FogSequentialForward.fog[7].server[0] totalJobs 9023
scalar FogSequentialForward.fog[7].server[0] droppedJobsQueue 0
scalar FogSequentialForward.fog[7].server[0] droppedJobsTimout 0
scalar FogSequentialForward.fog[7].server[0] droppedJobsSLA 5523
scalar FogSequentialForward.fog[7].server[0] droppedJobsTotal 5523
scalar FogSequentialForward.fog[8].dispatcher localJobs 9055
scalar FogSequentialForward.fog[8].dispatcher internalJobs 9240
scalar FogSequentialForward.fog[8].dispatcher externalJobs 2866
scalar FogSequentialForward.fog[8].dispatcher remoteJobs 3051
scalar FogSequentialForward.fog[8].dispatcher probeQueries 0
scalar FogSequentialForward.fog[8].dispatcher probeAnswers 0
scalar FogSequentialForward.fog[8].dispatcher droppedJobsSLA 0
scalar FogSequentialForward.fog[8].dispatcher jobs_class_1 12106
scalar FogSequentialForward.fog[8].dispatcher remoteJobs_class_1 3051
scalar FogSequentialForward.fog[8].dispatcher localJobs_class_1 9055
scalar FogSequentialForward.fog[8].server[0] rho 1
scalar FogSequentialForward.fog[8].server[0] congestionRatio 0
scalar FogSequentialForward.fog[8].server[0] totalJobs 9055
scalar FogSequentialForward.fog[8].server[0] droppedJobsQueue 1
scalar FogSequentialForward.fog[8].server[0] droppedJobsTimout 0
scalar FogSequentialForward.fog[8].server[0] droppedJobsSLA 5563
scalar FogSequentialForward.fog[8].server[0] droppedJobsTotal 5564
scalar FogSequentialForward.fog[9].dispatcher localJobs 9038
scalar FogSequentialForward.fog[9].dispatcher internalJobs 9039
scalar FogSequentialForward.fog[9].dispatcher externalJobs 2897
scalar FogSequentialForward.fog[9].dispatcher remoteJobs 2898
scalar FogSequentialForward.fog[9].dispatcher probeQueries 0
scalar FogSequentialForward.fog[9].dispatcher probeAnswers 0
scalar FogSequentialForward.fog[9].dispatcher droppedJobsSLA 0
scalar FogSequentialForward.fog[9].dispatcher jobs_class_1 11936
scalar FogSequentialForward.fog[9].dispatcher remoteJobs_class_1 2898
scalar FogSequentialForward.fog[9].dispatcher localJobs_class_1 9038
scalar FogSequentialForward.fog[9].server[0] rho 1
scalar FogSequentialForward.fog[9].server[0] congestionRatio 0
scalar FogSequentialForward.fog[9].server[0] totalJobs 9038
scalar FogSequentialForward.fog[9].server[0] droppedJobsQueue 1
scalar FogSequentialForward.fog[9].server[0] droppedJobsTimout 0
scalar FogSequentialForward.fog[9].server[0] droppedJobsSLA 5536
scalar FogSequentialForward.fog[9].server[0] droppedJobsTotal 5537
scalar FogSequentialForward.fog[10].dispatcher localJobs 9055
scalar FogSequentialForward.fog[10].dispatcher internalJobs 9155
scalar FogSequentialForward.fog[10].dispatcher externalJobs 2895
scalar FogSequentialForward.fog[10].dispatcher remoteJobs 2995
scalar FogSequentialForward.fog[10].dispatcher probeQueries 0
scalar FogSequentialForward.fog[10].dispatcher probeAnswers 0
scalar FogSequentialForward.fog[10].dispatcher droppedJobsSLA 0
scalar FogSequentialForward.fog[10].dispatcher jobs_class_1 12050
scalar FogSequentialForward.fog[10].dispatcher remoteJobs_class_1 2995
scalar FogSequentialForward.fog[10].dispatcher localJobs_class_1 9055
scalar FogSequentialForward.fog[10].server[0] rho 1
scalar FogSequentialForward.fog[10].server[0] congestionRatio 0
scalar FogSequentialForward.fog[10].server[0] totalJobs 9055
scalar FogSequentialForward.fog[10].server[0] droppedJobsQueue 0
scalar FogSequentialForward.fog[10].server[0] droppedJobsTimout 0
scalar FogSequentialForward.fog[10].server[0] droppedJobsSLA 5573
scalar FogSequentialForward.fog[10].server[0] droppedJobsTotal 5573
scalar FogSequentialForward.fog[11].dispatcher localJobs 9021
scalar FogSequentialForward.fog[11].dispatcher internalJobs 8965
scalar FogSequentialForward.fog[11].dispatcher externalJobs 2928
scalar FogSequentialForward.fog[11].dispatcher remoteJobs 2872
scalar FogSequentialForward.fog[11].dispatcher probeQueries 0
scalar FogSequentialForward.fog[11].dispatcher probeAnswers 0
scalar FogSequentialForward.fog[11].dispatcher droppedJobsSLA 0
scalar FogSequentialForward.fog[11].dispatcher jobs_class_1 11893
scalar FogSequentialForward.fog[11].dispatcher remoteJobs_class_1 2872
scalar FogSequentialForward.fog[11].dispatcher localJobs_class_1 9021
scalar FogSequentialForward.fog[11].server[0] rho 0.99972468614578
scalar FogSequentialForward.fog[11].server[0] congestionRatio 0
scalar FogSequentialForward.fog[11].server[0] totalJobs 9021
scalar FogSequentialForward.fog[11].server[0] droppedJobsQueue 2
scalar FogSequentialForward.fog[11].server[0] droppedJobsTimout 0
scalar FogSequentialForward.fog[11].server[0] droppedJobsSLA 5492
scalar FogSequentialForward.fog[11].server[0] droppedJobsTotal 5494
scalar FogSequentialForward.fog[12].dispatcher localJobs 8966
scalar FogSequentialForward.fog[12].dispatcher internalJobs 8971
scalar FogSequentialForward.fog[12].dispatcher externalJobs 2837
scalar FogSequentialForward.fog[12].dispatcher remoteJobs 2842
scalar FogSequentialForward.fog[12].dispatcher probeQueries 0
scalar FogSequentialForward.fog[12].dispatcher probeAnswers 0
scalar FogSequentialForward.fog[12].dispatcher droppedJobsSLA 0
scalar FogSequentialForward.fog[12].dispatcher jobs_class_1 11808
scalar FogSequentialForward.fog[12].dispatcher remoteJobs_class_1 2842
scalar FogSequentialForward.fog[12].dispatcher localJobs_class_1 8966
scalar FogSequentialForward.fog[12].server[0] rho 1
scalar FogSequentialForward.fog[12].server[0] congestionRatio 0
scalar FogSequentialForward.fog[12].server[0] totalJobs 8966
scalar FogSequentialForward.fog[12].server[0] droppedJobsQueue 0
scalar FogSequentialForward.fog[12].server[0] droppedJobsTimout 0
scalar FogSequentialForward.fog[12].server[0] droppedJobsSLA 5318
scalar FogSequentialForward.fog[12].server[0] droppedJobsTotal 5318
scalar FogSequentialForward.fog[13].dispatcher localJobs 8965
scalar FogSequentialForward.fog[13].dispatcher internalJobs 9036
scalar FogSequentialForward.fog[13].dispatcher externalJobs 2901
scalar FogSequentialForward.fog[13].dispatcher remoteJobs 2972
scalar FogSequentialForward.fog[13].dispatcher probeQueries 0
scalar FogSequentialForward.fog[13].dispatcher probeAnswers 0
scalar FogSequentialForward.fog[13].dispatcher droppedJobsSLA 0
scalar FogSequentialForward.fog[13].dispatcher jobs_class_1 11937
scalar FogSequentialForward.fog[13].dispatcher remoteJobs_class_1 2972
scalar FogSequentialForward.fog[13].dispatcher localJobs_class_1 8965
scalar FogSequentialForward.fog[13].server[0] rho 1
scalar FogSequentialForward.fog[13].server[0] congestionRatio 0
scalar FogSequentialForward.fog[13].server[0] totalJobs 8965
scalar FogSequentialForward.fog[13].server[0] droppedJobsQueue 3
scalar FogSequentialForward.fog[13].server[0] droppedJobsTimout 0
scalar FogSequentialForward.fog[13].server[0] droppedJobsSLA 5383
scalar FogSequentialForward.fog[13].server[0] droppedJobsTotal 5386
scalar FogSequentialForward.fog[14].dispatcher localJobs 9033
scalar FogSequentialForward.fog[14].dispatcher internalJobs 9150
scalar FogSequentialForward.fog[14].dispatcher externalJobs 2873
scalar FogSequentialForward.fog[14].dispatcher remoteJobs 2990
scalar FogSequentialForward.fog[14].dispatcher probeQueries 0
scalar FogSequentialForward.fog[14].dispatcher probeAnswers 0
scalar FogSequentialForward.fog[14].dispatcher droppedJobsSLA 0
scalar FogSequentialForward.fog[14].dispatcher jobs_class_1 12023
scalar FogSequentialForward.fog[14].dispatcher remoteJobs_class_1 2990
scalar FogSequentialForward.fog[14].dispatcher localJobs_class_1 9033
scalar FogSequentialForward.fog[14].server[0] rho 0.99966889619827
scalar FogSequentialForward.fog[14].server[0] congestionRatio 0
scalar FogSequentialForward.fog[14].server[0] totalJobs 9033
scalar FogSequentialForward.fog[14].server[0] droppedJobsQueue 1
scalar FogSequentialForward.fog[14].server[0] droppedJobsTimout 0
scalar FogSequentialForward.fog[14].server[0] droppedJobsSLA 5484
scalar FogSequentialForward.fog[14].server[0] droppedJobsTotal 5485
scalar FogSequentialForward.fog[15].dispatcher localJobs 9043
scalar FogSequentialForward.fog[15].dispatcher internalJobs 9043
scalar FogSequentialForward.fog[15].dispatcher externalJobs 2890
scalar FogSequentialForward.fog[15].dispatcher remoteJobs 2890
scalar FogSequentialForward.fog[15].dispatcher probeQueries 0
scalar FogSequentialForward.fog[15].dispatcher probeAnswers 0
scalar FogSequentialForward.fog[15].dispatcher droppedJobsSLA 0
scalar FogSequentialForward.fog[15].dispatcher jobs_class_1 11933
scalar FogSequentialForward.fog[15].dispatcher remoteJobs_class_1 2890
scalar FogSequentialForward.fog[15].dispatcher localJobs_class_1 9043
scalar FogSequentialForward.fog[15].server[0] rho 1
scalar FogSequentialForward.fog[15].server[0] congestionRatio 0
scalar FogSequentialForward.fog[15].server[0] totalJobs 9043
scalar FogSequentialForward.fog[15].server[0] droppedJobsQueue 1
scalar FogSequentialForward.fog[15].server[0] droppedJobsTimout 0
scalar FogSequentialForward.fog[15].server[0] droppedJobsSLA 5506
scalar FogSequentialForward.fog[15].server[0] droppedJobsTotal 5507
scalar FogSequentialForward.fog[16].dispatcher localJobs 8996
scalar FogSequentialForward.fog[16].dispatcher internalJobs 9079
scalar FogSequentialForward.fog[16].dispatcher externalJobs 2815
scalar FogSequentialForward.fog[16].dispatcher remoteJobs 2898
scalar FogSequentialForward.fog[16].dispatcher probeQueries 0
scalar FogSequentialForward.fog[16].dispatcher probeAnswers 0
scalar FogSequentialForward.fog[16].dispatcher droppedJobsSLA 0
scalar FogSequentialForward.fog[16].dispatcher jobs_class_1 11894
scalar FogSequentialForward.fog[16].dispatcher remoteJobs_class_1 2898
scalar FogSequentialForward.fog[16].dispatcher localJobs_class_1 8996
scalar FogSequentialForward.fog[16].server[0] rho 0.99998676776886
scalar FogSequentialForward.fog[16].server[0] congestionRatio 0
scalar FogSequentialForward.fog[16].server[0] totalJobs 8996
scalar FogSequentialForward.fog[16].server[0] droppedJobsQueue 0
scalar FogSequentialForward.fog[16].server[0] droppedJobsTimout 0
scalar FogSequentialForward.fog[16].server[0] droppedJobsSLA 5393
scalar FogSequentialForward.fog[16].server[0] droppedJobsTotal 5393
scalar FogSequentialForward.fog[17].dispatcher localJobs 8971
scalar FogSequentialForward.fog[17].dispatcher internalJobs 8861
scalar FogSequentialForward.fog[17].dispatcher externalJobs 2901
scalar FogSequentialForward.fog[17].dispatcher remoteJobs 2791
scalar FogSequentialForward.fog[17].dispatcher probeQueries 0
scalar FogSequentialForward.fog[17].dispatcher probeAnswers 0
scalar FogSequentialForward.fog[17].dispatcher droppedJobsSLA 0
scalar FogSequentialForward.fog[17].dispatcher jobs_class_1 11762
scalar FogSequentialForward.fog[17].dispatcher remoteJobs_class_1 2791
scalar FogSequentialForward.fog[17].dispatcher localJobs_class_1 8971
scalar FogSequentialForward.fog[17].server[0] rho 1
scalar FogSequentialForward.fog[17].server[0] congestionRatio 0
scalar FogSequentialForward.fog[17].server[0] totalJobs 8971
scalar FogSequentialForward.fog[17].server[0] droppedJobsQueue 0
scalar FogSequentialForward.fog[17].server[0] droppedJobsTimout 0
scalar FogSequentialForward.fog[17].server[0] droppedJobsSLA 5404
scalar FogSequentialForward.fog[17].server[0] droppedJobsTotal 5404
scalar FogSequentialForward.fog[18].dispatcher localJobs 9000
scalar FogSequentialForward.fog[18].dispatcher internalJobs 8885
scalar FogSequentialForward.fog[18].dispatcher externalJobs 2758
scalar FogSequentialForward.fog[18].dispatcher remoteJobs 2643
scalar FogSequentialForward.fog[18].dispatcher probeQueries 0
scalar FogSequentialForward.fog[18].dispatcher probeAnswers 0
scalar FogSequentialForward.fog[18].dispatcher droppedJobsSLA 0
scalar FogSequentialForward.fog[18].dispatcher jobs_class_1 11643
scalar FogSequentialForward.fog[18].dispatcher remoteJobs_class_1 2643
scalar FogSequentialForward.fog[18].dispatcher localJobs_class_1 9000
scalar FogSequentialForward.fog[18].server[0] rho 1
scalar FogSequentialForward.fog[18].server[0] congestionRatio 0
scalar FogSequentialForward.fog[18].server[0] totalJobs 9000
scalar FogSequentialForward.fog[18].server[0] droppedJobsQueue 1
scalar FogSequentialForward.fog[18].server[0] droppedJobsTimout 0
scalar FogSequentialForward.fog[18].server[0] droppedJobsSLA 5424
scalar FogSequentialForward.fog[18].server[0] droppedJobsTotal 5425
scalar FogSequentialForward.fog[19].dispatcher localJobs 9001
scalar FogSequentialForward.fog[19].dispatcher internalJobs 8959
scalar FogSequentialForward.fog[19].dispatcher externalJobs 2920
scalar FogSequentialForward.fog[19].dispatcher remoteJobs 2878
scalar FogSequentialForward.fog[19].dispatcher probeQueries 0
scalar FogSequentialForward.fog[19].dispatcher probeAnswers 0
scalar FogSequentialForward.fog[19].dispatcher droppedJobsSLA 0
scalar FogSequentialForward.fog[19].dispatcher jobs_class_1 11879
scalar FogSequentialForward.fog[19].dispatcher remoteJobs_class_1 2878
scalar FogSequentialForward.fog[19].dispatcher localJobs_class_1 9001
scalar FogSequentialForward.fog[19].server[0] rho 1
scalar FogSequentialForward.fog[19].server[0] congestionRatio 0
scalar FogSequentialForward.fog[19].server[0] totalJobs 9001
scalar FogSequentialForward.fog[19].server[0] droppedJobsQueue 1
scalar FogSequentialForward.fog[19].server[0] droppedJobsTimout 0
scalar FogSequentialForward.fog[19].server[0] droppedJobsSLA 5459
scalar FogSequentialForward.fog[19].server[0] droppedJobsTotal 5460
scalar FogSequentialForward.fog[20].dispatcher localJobs 8993
scalar FogSequentialForward.fog[20].dispatcher internalJobs 8949
scalar FogSequentialForward.fog[20].dispatcher externalJobs 2902
scalar FogSequentialForward.fog[20].dispatcher remoteJobs 2858
scalar FogSequentialForward.fog[20].dispatcher probeQueries 0
scalar FogSequentialForward.fog[20].dispatcher probeAnswers 0
scalar FogSequentialForward.fog[20].dispatcher droppedJobsSLA 0
scalar FogSequentialForward.fog[20].dispatcher jobs_class_1 11851
scalar FogSequentialForward.fog[20].dispatcher remoteJobs_class_1 2858
scalar FogSequentialForward.fog[20].dispatcher localJobs_class_1 8993
scalar FogSequentialForward.fog[20].server[0] rho 1
scalar FogSequentialForward.fog[20].server[0] congestionRatio 0
scalar FogSequentialForward.fog[20].server[0] totalJobs 8993
scalar FogSequentialForward.fog[20].server[0] droppedJobsQueue 0
scalar FogSequentialForward.fog[20].server[0] droppedJobsTimout 0
scalar FogSequentialForward.fog[20].server[0] droppedJobsSLA 5444
scalar FogSequentialForward.fog[20].server[0] droppedJobsTotal 5444
scalar FogSequentialForward.fog[21].dispatcher localJobs 9014
scalar FogSequentialForward.fog[21].dispatcher internalJobs 9179
scalar FogSequentialForward.fog[21].dispatcher externalJobs 2819
scalar FogSequentialForward.fog[21].dispatcher remoteJobs 2984
scalar FogSequentialForward.fog[21].dispatcher probeQueries 0
scalar FogSequentialForward.fog[21].dispatcher probeAnswers 0
scalar FogSequentialForward.fog[21].dispatcher droppedJobsSLA 0
scalar FogSequentialForward.fog[21].dispatcher jobs_class_1 11998
scalar FogSequentialForward.fog[21].dispatcher remoteJobs_class_1 2984
scalar FogSequentialForward.fog[21].dispatcher localJobs_class_1 9014
scalar FogSequentialForward.fog[21].server[0] rho 0.99997353553772
scalar FogSequentialForward.fog[21].server[0] congestionRatio 0
scalar FogSequentialForward.fog[21].server[0] totalJobs 9014
scalar FogSequentialForward.fog[21].server[0] droppedJobsQueue 3
scalar FogSequentialForward.fog[21].server[0] droppedJobsTimout 0
scalar FogSequentialForward.fog[21].server[0] droppedJobsSLA 5426
scalar FogSequentialForward.fog[21].server[0] droppedJobsTotal 5429
scalar FogSequentialForward.fog[22].dispatcher localJobs 8990
scalar FogSequentialForward.fog[22].dispatcher internalJobs 9003
scalar FogSequentialForward.fog[22].dispatcher externalJobs 2909
scalar FogSequentialForward.fog[22].dispatcher remoteJobs 2922
scalar FogSequentialForward.fog[22].dispatcher probeQueries 0
scalar FogSequentialForward.fog[22].dispatcher probeAnswers 0
scalar FogSequentialForward.fog[22].dispatcher droppedJobsSLA 0
scalar FogSequentialForward.fog[22].dispatcher jobs_class_1 11912
scalar FogSequentialForward.fog[22].dispatcher remoteJobs_class_1 2922
scalar FogSequentialForward.fog[22].dispatcher localJobs_class_1 8990
scalar FogSequentialForward.fog[22].server[0] rho 1
scalar FogSequentialForward.fog[22].server[0] congestionRatio 0
scalar FogSequentialForward.fog[22].server[0] totalJobs 8990
scalar FogSequentialForward.fog[22].server[0] droppedJobsQueue 0
scalar FogSequentialForward.fog[22].server[0] droppedJobsTimout 0
scalar FogSequentialForward.fog[22].server[0] droppedJobsSLA 5363
scalar FogSequentialForward.fog[22].server[0] droppedJobsTotal 5363
scalar FogSequentialForward.fog[23].dispatcher localJobs 8988
scalar FogSequentialForward.fog[23].dispatcher internalJobs 8934
scalar FogSequentialForward.fog[23].dispatcher externalJobs 2882
scalar FogSequentialForward.fog[23].dispatcher remoteJobs 2828
scalar FogSequentialForward.fog[23].dispatcher probeQueries 0
scalar FogSequentialForward.fog[23].dispatcher probeAnswers 0
scalar FogSequentialForward.fog[23].dispatcher droppedJobsSLA 0
scalar FogSequentialForward.fog[23].dispatcher jobs_class_1 11816
scalar FogSequentialForward.fog[23].dispatcher remoteJobs_class_1 2828
scalar FogSequentialForward.fog[23].dispatcher localJobs_class_1 8988
scalar FogSequentialForward.fog[23].server[0] rho 1
scalar FogSequentialForward.fog[23].server[0] congestionRatio 0
scalar FogSequentialForward.fog[23].server[0] totalJobs 8988
scalar FogSequentialForward.fog[23].server[0] droppedJobsQueue 2
scalar FogSequentialForward.fog[23].server[0] droppedJobsTimout 0
scalar FogSequentialForward.fog[23].server[0] droppedJobsSLA 5407
scalar FogSequentialForward.fog[23].server[0] droppedJobsTotal 5409
scalar FogSequentialForward.fog[24].dispatcher localJobs 9032
scalar FogSequentialForward.fog[24].dispatcher internalJobs 8942
scalar FogSequentialForward.fog[24].dispatcher externalJobs 2988
scalar FogSequentialForward.fog[24].dispatcher remoteJobs 2898
scalar FogSequentialForward.fog[24].dispatcher probeQueries 0
scalar FogSequentialForward.fog[24].dispatcher probeAnswers 0
scalar FogSequentialForward.fog[24].dispatcher droppedJobsSLA 0
scalar FogSequentialForward.fog[24].dispatcher jobs_class_1 11930
scalar FogSequentialForward.fog[24].dispatcher remoteJobs_class_1 2898
scalar FogSequentialForward.fog[24].dispatcher localJobs_class_1 9032
scalar FogSequentialForward.fog[24].server[0] rho 0.99971699714661
scalar FogSequentialForward.fog[24].server[0] congestionRatio 0
scalar FogSequentialForward.fog[24].server[0] totalJobs 9032
scalar FogSequentialForward.fog[24].server[0] droppedJobsQueue 1
scalar FogSequentialForward.fog[24].server[0] droppedJobsTimout 0
scalar FogSequentialForward.fog[24].server[0] droppedJobsSLA 5477
scalar FogSequentialForward.fog[24].server[0] droppedJobsTotal 5478
scalar FogSequentialForward.fog[25].dispatcher localJobs 8976
scalar FogSequentialForward.fog[25].dispatcher internalJobs 9018
scalar FogSequentialForward.fog[25].dispatcher externalJobs 2821
scalar FogSequentialForward.fog[25].dispatcher remoteJobs 2863
scalar FogSequentialForward.fog[25].dispatcher probeQueries 0
scalar FogSequentialForward.fog[25].dispatcher probeAnswers 0
scalar FogSequentialForward.fog[25].dispatcher droppedJobsSLA 0
scalar FogSequentialForward.fog[25].dispatcher jobs_class_1 11839
scalar FogSequentialForward.fog[25].dispatcher remoteJobs_class_1 2863
scalar FogSequentialForward.fog[25].dispatcher localJobs_class_1 8976
scalar FogSequentialForward.fog[25].server[0] rho 0.99988794326782
scalar FogSequentialForward.fog[25].server[0] congestionRatio 0
scalar FogSequentialForward.fog[25].server[0] totalJobs 8976
scalar FogSequentialForward.fog[25].server[0] droppedJobsQueue 2
scalar FogSequentialForward.fog[25].server[0] droppedJobsTimout 0
scalar FogSequentialForward.fog[25].server[0] droppedJobsSLA 5422
scalar FogSequentialForward.fog[25].server[0] droppedJobsTotal 5424
scalar FogSequentialForward.fog[26].dispatcher localJobs 9038
scalar FogSequentialForward.fog[26].dispatcher internalJobs 9107
scalar FogSequentialForward.fog[26].dispatcher externalJobs 2963
scalar FogSequentialForward.fog[26].dispatcher remoteJobs 3032
scalar FogSequentialForward.fog[26].dispatcher probeQueries 0
scalar FogSequentialForward.fog[26].dispatcher probeAnswers 0
scalar FogSequentialForward.fog[26].dispatcher droppedJobsSLA 0
scalar FogSequentialForward.fog[26].dispatcher jobs_class_1 12070
scalar FogSequentialForward.fog[26].dispatcher remoteJobs_class_1 3032
scalar FogSequentialForward.fog[26].dispatcher localJobs_class_1 9038
scalar FogSequentialForward.fog[26].server[0] rho 1
scalar FogSequentialForward.fog[26].server[0] congestionRatio 0
scalar FogSequentialForward.fog[26].server[0] totalJobs 9038
scalar FogSequentialForward.fog[26].server[0] droppedJobsQueue 2
scalar FogSequentialForward.fog[26].server[0] droppedJobsTimout 0
scalar FogSequentialForward.fog[26].server[0] droppedJobsSLA 5468
scalar FogSequentialForward.fog[26].server[0] droppedJobsTotal 5470
scalar FogSequentialForward.fog[27].dispatcher localJobs 9025
scalar FogSequentialForward.fog[27].dispatcher internalJobs 9097
scalar FogSequentialForward.fog[27].dispatcher externalJobs 2861
scalar FogSequentialForward.fog[27].dispatcher remoteJobs 2933
scalar FogSequentialForward.fog[27].dispatcher probeQueries 0
scalar FogSequentialForward.fog[27].dispatcher probeAnswers 0
scalar FogSequentialForward.fog[27].dispatcher droppedJobsSLA 0
scalar FogSequentialForward.fog[27].dispatcher jobs_class_1 11958
scalar FogSequentialForward.fog[27].dispatcher remoteJobs_class_1 2933
scalar FogSequentialForward.fog[27].dispatcher localJobs_class_1 9025
scalar FogSequentialForward.fog[27].server[0] rho 0.99999749660492
scalar FogSequentialForward.fog[27].server[0] congestionRatio 0
scalar FogSequentialForward.fog[27].server[0] totalJobs 9025
scalar FogSequentialForward.fog[27].server[0] droppedJobsQueue 3
scalar FogSequentialForward.fog[27].server[0] droppedJobsTimout 0
scalar FogSequentialForward.fog[27].server[0] droppedJobsSLA 5440
scalar FogSequentialForward.fog[27].server[0] droppedJobsTotal 5443
scalar FogSequentialForward.fog[28].dispatcher localJobs 9026
scalar FogSequentialForward.fog[28].dispatcher internalJobs 9025
scalar FogSequentialForward.fog[28].dispatcher externalJobs 2859
scalar FogSequentialForward.fog[28].dispatcher remoteJobs 2858
scalar FogSequentialForward.fog[28].dispatcher probeQueries 0
scalar FogSequentialForward.fog[28].dispatcher probeAnswers 0
scalar FogSequentialForward.fog[28].dispatcher droppedJobsSLA 0
scalar FogSequentialForward.fog[28].dispatcher jobs_class_1 11884
scalar FogSequentialForward.fog[28].dispatcher remoteJobs_class_1 2858
scalar FogSequentialForward.fog[28].dispatcher localJobs_class_1 9026
scalar FogSequentialForward.fog[28].server[0] rho 1
scalar FogSequentialForward.fog[28].server[0] congestionRatio 0
scalar FogSequentialForward.fog[28].server[0] totalJobs 9026
scalar FogSequentialForward.fog[28].server[0] droppedJobsQueue 2
scalar FogSequentialForward.fog[28].server[0] droppedJobsTimout 0
scalar FogSequentialForward.fog[28].server[0] droppedJobsSLA 5536
scalar FogSequentialForward.fog[28].server[0] droppedJobsTotal 5538
scalar FogSequentialForward.fog[29].dispatcher localJobs 9004
scalar FogSequentialForward.fog[29].dispatcher internalJobs 8938
scalar FogSequentialForward.fog[29].dispatcher externalJobs 2889
scalar FogSequentialForward.fog[29].dispatcher remoteJobs 2823
scalar FogSequentialForward.fog[29].dispatcher probeQueries 0
scalar FogSequentialForward.fog[29].dispatcher probeAnswers 0
scalar FogSequentialForward.fog[29].dispatcher droppedJobsSLA 0
scalar FogSequentialForward.fog[29].dispatcher jobs_class_1 11827
scalar FogSequentialForward.fog[29].dispatcher remoteJobs_class_1 2823
scalar FogSequentialForward.fog[29].dispatcher localJobs_class_1 9004
scalar FogSequentialForward.fog[29].server[0] rho 1
scalar FogSequentialForward.fog[29].server[0] congestionRatio 0
scalar FogSequentialForward.fog[29].server[0] totalJobs 9004
scalar FogSequentialForward.fog[29].server[0] droppedJobsQueue 1
scalar FogSequentialForward.fog[29].server[0] droppedJobsTimout 0
scalar FogSequentialForward.fog[29].server[0] droppedJobsSLA 5301
scalar FogSequentialForward.fog[29].server[0] droppedJobsTotal 5302
scalar FogSequentialForward.fog[30].dispatcher localJobs 8967
scalar FogSequentialForward.fog[30].dispatcher internalJobs 8907
scalar FogSequentialForward.fog[30].dispatcher externalJobs 2819
scalar FogSequentialForward.fog[30].dispatcher remoteJobs 2759
scalar FogSequentialForward.fog[30].dispatcher probeQueries 0
scalar FogSequentialForward.fog[30].dispatcher probeAnswers 0
scalar FogSequentialForward.fog[30].dispatcher droppedJobsSLA 0
scalar FogSequentialForward.fog[30].dispatcher jobs_class_1 11726
scalar FogSequentialForward.fog[30].dispatcher remoteJobs_class_1 2759
scalar FogSequentialForward.fog[30].dispatcher localJobs_class_1 8967
scalar FogSequentialForward.fog[30].server[0] rho 0.99978733062744
scalar FogSequentialForward.fog[30].server[0] congestionRatio 0
scalar FogSequentialForward.fog[30].server[0] totalJobs 8967
scalar FogSequentialForward.fog[30].server[0] droppedJobsQueue 3
scalar FogSequentialForward.fog[30].server[0] droppedJobsTimout 0
scalar FogSequentialForward.fog[30].server[0] droppedJobsSLA 5386
scalar FogSequentialForward.fog[30].server[0] droppedJobsTotal 5389
scalar FogSequentialForward.fog[31].dispatcher localJobs 8957
scalar FogSequentialForward.fog[31].dispatcher internalJobs 8975
scalar FogSequentialForward.fog[31].dispatcher externalJobs 2816
scalar FogSequentialForward.fog[31].dispatcher remoteJobs 2834
scalar FogSequentialForward.fog[31].dispatcher probeQueries 0
scalar FogSequentialForward.fog[31].dispatcher probeAnswers 0
scalar FogSequentialForward.fog[31].dispatcher droppedJobsSLA 0
scalar FogSequentialForward.fog[31].dispatcher jobs_class_1 11791
scalar FogSequentialForward.fog[31].dispatcher remoteJobs_class_1 2834
scalar FogSequentialForward.fog[31].dispatcher localJobs_class_1 8957
scalar FogSequentialForward.fog[31].server[0] rho 0.99981421232224
scalar FogSequentialForward.fog[31].server[0] congestionRatio 0
scalar FogSequentialForward.fog[31].server[0] totalJobs 8957
scalar FogSequentialForward.fog[31].server[0] droppedJobsQueue 0
scalar FogSequentialForward.fog[31].server[0] droppedJobsTimout 0
scalar FogSequentialForward.fog[31].server[0] droppedJobsSLA 5396
scalar FogSequentialForward.fog[31].server[0] droppedJobsTotal 5396
scalar FogSequentialForward.fog[32].dispatcher localJobs 8959
scalar FogSequentialForward.fog[32].dispatcher internalJobs 8939
scalar FogSequentialForward.fog[32].dispatcher externalJobs 2789
scalar FogSequentialForward.fog[32].dispatcher remoteJobs 2769
scalar FogSequentialForward.fog[32].dispatcher probeQueries 0
scalar FogSequentialForward.fog[32].dispatcher probeAnswers 0
scalar FogSequentialForward.fog[32].dispatcher droppedJobsSLA 0
scalar FogSequentialForward.fog[32].dispatcher jobs_class_1 11728
scalar FogSequentialForward.fog[32].dispatcher remoteJobs_class_1 2769
scalar FogSequentialForward.fog[32].dispatcher localJobs_class_1 8959
scalar FogSequentialForward.fog[32].server[0] rho 1
scalar FogSequentialForward.fog[32].server[0] congestionRatio 0
scalar FogSequentialForward.fog[32].server[0] totalJobs 8959
scalar FogSequentialForward.fog[32].server[0] droppedJobsQueue 1
scalar FogSequentialForward.fog[32].server[0] droppedJobsTimout 0
scalar FogSequentialForward.fog[32].server[0] droppedJobsSLA 5369
scalar FogSequentialForward.fog[32].server[0] droppedJobsTotal 5370
scalar FogSequentialForward.fog[33].dispatcher localJobs 9024
scalar FogSequentialForward.fog[33].dispatcher internalJobs 8957
scalar FogSequentialForward.fog[33].dispatcher externalJobs 2929
scalar FogSequentialForward.fog[33].dispatcher remoteJobs 2862
scalar FogSequentialForward.fog[33].dispatcher probeQueries 0
scalar FogSequentialForward.fog[33].dispatcher probeAnswers 0
scalar FogSequentialForward.fog[33].dispatcher droppedJobsSLA 0
scalar FogSequentialForward.fog[33].dispatcher jobs_class_1 11886
scalar FogSequentialForward.fog[33].dispatcher remoteJobs_class_1 2862
scalar FogSequentialForward.fog[33].dispatcher localJobs_class_1 9024
scalar FogSequentialForward.fog[33].server[0] rho 0.99999648332596
scalar FogSequentialForward.fog[33].server[0] congestionRatio 0
scalar FogSequentialForward.fog[33].server[0] totalJobs 9024
scalar FogSequentialForward.fog[33].server[0] droppedJobsQueue 3
scalar FogSequentialForward.fog[33].server[0] droppedJobsTimout 0
scalar FogSequentialForward.fog[33].server[0] droppedJobsSLA 5389
scalar FogSequentialForward.fog[33].server[0] droppedJobsTotal 5392
scalar FogSequentialForward.fog[34].dispatcher localJobs 9018
scalar FogSequentialForward.fog[34].dispatcher internalJobs 9056
scalar FogSequentialForward.fog[34].dispatcher externalJobs 2883
scalar FogSequentialForward.fog[34].dispatcher remoteJobs 2921
scalar FogSequentialForward.fog[34].dispatcher probeQueries 0
scalar FogSequentialForward.fog[34].dispatcher probeAnswers 0
scalar FogSequentialForward.fog[34].dispatcher droppedJobsSLA 0
scalar FogSequentialForward.fog[34].dispatcher jobs_class_1 11939
scalar FogSequentialForward.fog[34].dispatcher remoteJobs_class_1 2921
scalar FogSequentialForward.fog[34].dispatcher localJobs_class_1 9018
scalar FogSequentialForward.fog[34].server[0] rho 0.99994689226151
scalar FogSequentialForward.fog[34].server[0] congestionRatio 0
scalar FogSequentialForward.fog[34].server[0] totalJobs 9018
scalar FogSequentialForward.fog[34].server[0] droppedJobsQueue 2
scalar FogSequentialForward.fog[34].server[0] droppedJobsTimout 0
scalar FogSequentialForward.fog[34].server[0] droppedJobsSLA 5373
scalar FogSequentialForward.fog[34].server[0] droppedJobsTotal 5375
scalar FogSequentialForward.fog[35].dispatcher localJobs 8994
scalar FogSequentialForward.fog[35].dispatcher internalJobs 8980
scalar FogSequentialForward.fog[35].dispatcher externalJobs 2913
scalar FogSequentialForward.fog[35].dispatcher remoteJobs 2899
scalar FogSequentialForward.fog[35].dispatcher probeQueries 0
scalar FogSequentialForward.fog[35].dispatcher probeAnswers 0
scalar FogSequentialForward.fog[35].dispatcher droppedJobsSLA 0
scalar FogSequentialForward.fog[35].dispatcher jobs_class_1 11893
scalar FogSequentialForward.fog[35].dispatcher remoteJobs_class_1 2899
scalar FogSequentialForward.fog[35].dispatcher localJobs_class_1 8994
scalar FogSequentialForward.fog[35].server[0] rho 1
scalar FogSequentialForward.fog[35].server[0] congestionRatio 0
scalar FogSequentialForward.fog[35].server[0] totalJobs 8994
scalar FogSequentialForward.fog[35].server[0] droppedJobsQueue 0
scalar FogSequentialForward.fog[35].server[0] droppedJobsTimout 0
scalar FogSequentialForward.fog[35].server[0] droppedJobsSLA 5437
scalar FogSequentialForward.fog[35].server[0] droppedJobsTotal 5437
scalar FogSequentialForward.fog[36].dispatcher localJobs 8970
scalar FogSequentialForward.fog[36].dispatcher internalJobs 8891
scalar FogSequentialForward.fog[36].dispatcher externalJobs 2821
scalar FogSequentialForward.fog[36].dispatcher remoteJobs 2742
scalar FogSequentialForward.fog[36].dispatcher probeQueries 0
scalar FogSequentialForward.fog[36].dispatcher probeAnswers 0
scalar FogSequentialForward.fog[36].dispatcher droppedJobsSLA 0
scalar FogSequentialForward.fog[36].dispatcher jobs_class_1 11712
scalar FogSequentialForward.fog[36].dispatcher remoteJobs_class_1 2742
scalar FogSequentialForward.fog[36].dispatcher localJobs_class_1 8970
scalar FogSequentialForward.fog[36].server[0] rho 1
scalar FogSequentialForward.fog[36].server[0] congestionRatio 0
scalar FogSequentialForward.fog[36].server[0] totalJobs 8970
scalar FogSequentialForward.fog[36].server[0] droppedJobsQueue 2
scalar FogSequentialForward.fog[36].server[0] droppedJobsTimout 0
scalar FogSequentialForward.fog[36].server[0] droppedJobsSLA 5388
scalar FogSequentialForward.fog[36].server[0] droppedJobsTotal 5390
scalar FogSequentialForward.fog[37].dispatcher localJobs 8925
scalar FogSequentialForward.fog[37].dispatcher internalJobs 8826
scalar FogSequentialForward.fog[37].dispatcher externalJobs 2826
scalar FogSequentialForward.fog[37].dispatcher remoteJobs 2727
scalar FogSequentialForward.fog[37].dispatcher probeQueries 0
scalar FogSequentialForward.fog[37].dispatcher probeAnswers 0
scalar FogSequentialForward.fog[37].dispatcher droppedJobsSLA 0
scalar FogSequentialForward.fog[37].dispatcher jobs_class_1 11652
scalar FogSequentialForward.fog[37].dispatcher remoteJobs_class_1 2727
scalar FogSequentialForward.fog[37].dispatcher localJobs_class_1 8925
scalar FogSequentialForward.fog[37].server[0] rho 1
scalar FogSequentialForward.fog[37].server[0] congestionRatio 0
scalar FogSequentialForward.fog[37].server[0] totalJobs 8925
scalar FogSequentialForward.fog[37].server[0] droppedJobsQueue 0
scalar FogSequentialForward.fog[37].server[0] droppedJobsTimout 0
scalar FogSequentialForward.fog[37].server[0] droppedJobsSLA 5347
scalar FogSequentialForward.fog[37].server[0] droppedJobsTotal 5347
scalar FogSequentialForward.fog[38].dispatcher localJobs 8995
scalar FogSequentialForward.fog[38].dispatcher internalJobs 9044
scalar FogSequentialForward.fog[38].dispatcher externalJobs 2858
scalar FogSequentialForward.fog[38].dispatcher remoteJobs 2907
scalar FogSequentialForward.fog[38].dispatcher probeQueries 0
scalar FogSequentialForward.fog[38].dispatcher probeAnswers 0
scalar FogSequentialForward.fog[38].dispatcher droppedJobsSLA 0
scalar FogSequentialForward.fog[38].dispatcher jobs_class_1 11902
scalar FogSequentialForward.fog[38].dispatcher remoteJobs_class_1 2907
scalar FogSequentialForward.fog[38].dispatcher localJobs_class_1 8995
scalar FogSequentialForward.fog[38].server[0] rho 1
scalar FogSequentialForward.fog[38].server[0] congestionRatio 0
scalar FogSequentialForward.fog[38].server[0] totalJobs 8995
scalar FogSequentialForward.fog[38].server[0] droppedJobsQueue 0
scalar FogSequentialForward.fog[38].server[0] droppedJobsTimout 0
scalar FogSequentialForward.fog[38].server[0] droppedJobsSLA 5314
scalar FogSequentialForward.fog[38].server[0] droppedJobsTotal 5314
scalar FogSequentialForward.fog[39].dispatcher localJobs 8981
scalar FogSequentialForward.fog[39].dispatcher internalJobs 8953
scalar FogSequentialForward.fog[39].dispatcher externalJobs 2854
scalar FogSequentialForward.fog[39].dispatcher remoteJobs 2826
scalar FogSequentialForward.fog[39].dispatcher probeQueries 0
scalar FogSequentialForward.fog[39].dispatcher probeAnswers 0
scalar FogSequentialForward.fog[39].dispatcher droppedJobsSLA 0
scalar FogSequentialForward.fog[39].dispatcher jobs_class_1 11807
scalar FogSequentialForward.fog[39].dispatcher remoteJobs_class_1 2826
scalar FogSequentialForward.fog[39].dispatcher localJobs_class_1 8981
scalar FogSequentialForward.fog[39].server[0] rho 0.99999803304672
scalar FogSequentialForward.fog[39].server[0] congestionRatio 0
scalar FogSequentialForward.fog[39].server[0] totalJobs 8981
scalar FogSequentialForward.fog[39].server[0] droppedJobsQueue 3
scalar FogSequentialForward.fog[39].server[0] droppedJobsTimout 0
scalar FogSequentialForward.fog[39].server[0] droppedJobsSLA 5343
scalar FogSequentialForward.fog[39].server[0] droppedJobsTotal 5346
scalar FogSequentialForward.fog[40].dispatcher localJobs 8976
scalar FogSequentialForward.fog[40].dispatcher internalJobs 8920
scalar FogSequentialForward.fog[40].dispatcher externalJobs 2810
scalar FogSequentialForward.fog[40].dispatcher remoteJobs 2754
scalar FogSequentialForward.fog[40].dispatcher probeQueries 0
scalar FogSequentialForward.fog[40].dispatcher probeAnswers 0
scalar FogSequentialForward.fog[40].dispatcher droppedJobsSLA 0
scalar FogSequentialForward.fog[40].dispatcher jobs_class_1 11730
scalar FogSequentialForward.fog[40].dispatcher remoteJobs_class_1 2754
scalar FogSequentialForward.fog[40].dispatcher localJobs_class_1 8976
scalar FogSequentialForward.fog[40].server[0] rho 1
scalar FogSequentialForward.fog[40].server[0] congestionRatio 0
scalar FogSequentialForward.fog[40].server[0] totalJobs 8976
scalar FogSequentialForward.fog[40].server[0] droppedJobsQueue 1
scalar FogSequentialForward.fog[40].server[0] droppedJobsTimout 0
scalar FogSequentialForward.fog[40].server[0] droppedJobsSLA 5345
scalar FogSequentialForward.fog[40].server[0] droppedJobsTotal 5346
scalar FogSequentialForward.fog[41].dispatcher localJobs 9045
scalar FogSequentialForward.fog[41].dispatcher internalJobs 9086
scalar FogSequentialForward.fog[41].dispatcher externalJobs 2918
scalar FogSequentialForward.fog[41].dispatcher remoteJobs 2959
scalar FogSequentialForward.fog[41].dispatcher probeQueries 0
scalar FogSequentialForward.fog[41].dispatcher probeAnswers 0
scalar FogSequentialForward.fog[41].dispatcher droppedJobsSLA 0
scalar FogSequentialForward.fog[41].dispatcher jobs_class_1 12004
scalar FogSequentialForward.fog[41].dispatcher remoteJobs_class_1 2959
scalar FogSequentialForward.fog[41].dispatcher localJobs_class_1 9045
scalar FogSequentialForward.fog[41].server[0] rho 1
scalar FogSequentialForward.fog[41].server[0] congestionRatio 0
scalar FogSequentialForward.fog[41].server[0] totalJobs 9045
scalar FogSequentialForward.fog[41].server[0] droppedJobsQueue 0
scalar FogSequentialForward.fog[41].server[0] droppedJobsTimout 0
scalar FogSequentialForward.fog[41].server[0] droppedJobsSLA 5477
scalar FogSequentialForward.fog[41].server[0] droppedJobsTotal 5477
scalar FogSequentialForward.fog[42].dispatcher localJobs 8970
scalar FogSequentialForward.fog[42].dispatcher internalJobs 8941
scalar FogSequentialForward.fog[42].dispatcher externalJobs 2807
scalar FogSequentialForward.fog[42].dispatcher remoteJobs 2778
scalar FogSequentialForward.fog[42].dispatcher probeQueries 0
scalar FogSequentialForward.fog[42].dispatcher probeAnswers 0
scalar FogSequentialForward.fog[42].dispatcher droppedJobsSLA 0
scalar FogSequentialForward.fog[42].dispatcher jobs_class_1 11748
scalar FogSequentialForward.fog[42].dispatcher remoteJobs_class_1 2778
scalar FogSequentialForward.fog[42].dispatcher localJobs_class_1 8970
scalar FogSequentialForward.fog[42].server[0] rho 1
scalar FogSequentialForward.fog[42].server[0] congestionRatio 0
scalar FogSequentialForward.fog[42].server[0] totalJobs 8970
scalar FogSequentialForward.fog[42].server[0] droppedJobsQueue 1
scalar FogSequentialForward.fog[42].server[0] droppedJobsTimout 0
scalar FogSequentialForward.fog[42].server[0] droppedJobsSLA 5420
scalar FogSequentialForward.fog[42].server[0] droppedJobsTotal 5421
scalar FogSequentialForward.fog[43].dispatcher localJobs 9017
scalar FogSequentialForward.fog[43].dispatcher internalJobs 8982
scalar FogSequentialForward.fog[43].dispatcher externalJobs 2844
scalar FogSequentialForward.fog[43].dispatcher remoteJobs 2809
scalar FogSequentialForward.fog[43].dispatcher probeQueries 0
scalar FogSequentialForward.fog[43].dispatcher probeAnswers 0
scalar FogSequentialForward.fog[43].dispatcher droppedJobsSLA 0
scalar FogSequentialForward.fog[43].dispatcher jobs_class_1 11826
scalar FogSequentialForward.fog[43].dispatcher remoteJobs_class_1 2809
scalar FogSequentialForward.fog[43].dispatcher localJobs_class_1 9017
scalar FogSequentialForward.fog[43].server[0] rho 1
scalar FogSequentialForward.fog[43].server[0] congestionRatio 0
scalar FogSequentialForward.fog[43].server[0] totalJobs 9017
scalar FogSequentialForward.fog[43].server[0] droppedJobsQueue 4
scalar FogSequentialForward.fog[43].server[0] droppedJobsTimout 0
scalar FogSequentialForward.fog[43].server[0] droppedJobsSLA 5483
scalar FogSequentialForward.fog[43].server[0] droppedJobsTotal 5487
scalar FogSequentialForward.fog[44].dispatcher localJobs 8989
scalar FogSequentialForward.fog[44].dispatcher internalJobs 9123
scalar FogSequentialForward.fog[44].dispatcher externalJobs 2928
scalar FogSequentialForward.fog[44].dispatcher remoteJobs 3062
scalar FogSequentialForward.fog[44].dispatcher probeQueries 0
scalar FogSequentialForward.fog[44].dispatcher probeAnswers 0
scalar FogSequentialForward.fog[44].dispatcher droppedJobsSLA 0
scalar FogSequentialForward.fog[44].dispatcher jobs_class_1 12051
scalar FogSequentialForward.fog[44].dispatcher remoteJobs_class_1 3062
scalar FogSequentialForward.fog[44].dispatcher localJobs_class_1 8989
scalar FogSequentialForward.fog[44].server[0] rho 1
scalar FogSequentialForward.fog[44].server[0] congestionRatio 0
scalar FogSequentialForward.fog[44].server[0] totalJobs 8989
scalar FogSequentialForward.fog[44].server[0] droppedJobsQueue 0
scalar FogSequentialForward.fog[44].server[0] droppedJobsTimout 0
scalar FogSequentialForward.fog[44].server[0] droppedJobsSLA 5384
scalar FogSequentialForward.fog[44].server[0] droppedJobsTotal 5384
scalar FogSequentialForward.fog[45].dispatcher localJobs 8964
scalar FogSequentialForward.fog[45].dispatcher internalJobs 8816
scalar FogSequentialForward.fog[45].dispatcher externalJobs 2857
scalar FogSequentialForward.fog[45].dispatcher remoteJobs 2709
scalar FogSequentialForward.fog[45].dispatcher probeQueries 0
scalar FogSequentialForward.fog[45].dispatcher probeAnswers 0
scalar FogSequentialForward.fog[45].dispatcher droppedJobsSLA 0
scalar FogSequentialForward.fog[45].dispatcher jobs_class_1 11673
scalar FogSequentialForward.fog[45].dispatcher remoteJobs_class_1 2709
scalar FogSequentialForward.fog[45].dispatcher localJobs_class_1 8964
scalar FogSequentialForward.fog[45].server[0] rho 1
scalar FogSequentialForward.fog[45].server[0] congestionRatio 0
scalar FogSequentialForward.fog[45].server[0] totalJobs 8964
scalar FogSequentialForward.fog[45].server[0] droppedJobsQueue 0
scalar FogSequentialForward.fog[45].server[0] droppedJobsTimout 0
scalar FogSequentialForward.fog[45].server[0] droppedJobsSLA 5370
scalar FogSequentialForward.fog[45].server[0] droppedJobsTotal 5370
scalar FogSequentialForward.fog[46].dispatcher localJobs 8993
scalar FogSequentialForward.fog[46].dispatcher internalJobs 8942
scalar FogSequentialForward.fog[46].dispatcher externalJobs 2754
scalar FogSequentialForward.fog[46].dispatcher remoteJobs 2703
scalar FogSequentialForward.fog[46].dispatcher probeQueries 0
scalar FogSequentialForward.fog[46].dispatcher probeAnswers 0
scalar FogSequentialForward.fog[46].dispatcher droppedJobsSLA 0
scalar FogSequentialForward.fog[46].dispatcher jobs_class_1 11696
scalar FogSequentialForward.fog[46].dispatcher remoteJobs_class_1 2703
scalar FogSequentialForward.fog[46].dispatcher localJobs_class_1 8993
scalar FogSequentialForward.fog[46].server[0] rho 1
scalar FogSequentialForward.fog[46].server[0] congestionRatio 0
scalar FogSequentialForward.fog[46].server[0] totalJobs 8993
scalar FogSequentialForward.fog[46].server[0] droppedJobsQueue 3
scalar FogSequentialForward.fog[46].server[0] droppedJobsTimout 0
scalar FogSequentialForward.fog[46].server[0] droppedJobsSLA 5407
scalar FogSequentialForward.fog[46].server[0] droppedJobsTotal 5410
scalar FogSequentialForward.fog[47].dispatcher localJobs 9012
scalar FogSequentialForward.fog[47].dispatcher internalJobs 9125
scalar FogSequentialForward.fog[47].dispatcher externalJobs 2872
scalar FogSequentialForward.fog[47].dispatcher remoteJobs 2985
scalar FogSequentialForward.fog[47].dispatcher probeQueries 0
scalar FogSequentialForward.fog[47].dispatcher probeAnswers 0
scalar FogSequentialForward.fog[47].dispatcher droppedJobsSLA 0
scalar FogSequentialForward.fog[47].dispatcher jobs_class_1 11997
scalar FogSequentialForward.fog[47].dispatcher remoteJobs_class_1 2985
scalar FogSequentialForward.fog[47].dispatcher localJobs_class_1 9012
scalar FogSequentialForward.fog[47].server[0] rho 1
scalar FogSequentialForward.fog[47].server[0] congestionRatio 0
scalar FogSequentialForward.fog[47].server[0] totalJobs 9012
scalar FogSequentialForward.fog[47].server[0] droppedJobsQueue 2
scalar FogSequentialForward.fog[47].server[0] droppedJobsTimout 0
scalar FogSequentialForward.fog[47].server[0] droppedJobsSLA 5358
scalar FogSequentialForward.fog[47].server[0] droppedJobsTotal 5360
scalar FogSequentialForward.fog[48].dispatcher localJobs 9005
scalar FogSequentialForward.fog[48].dispatcher internalJobs 9144
scalar FogSequentialForward.fog[48].dispatcher externalJobs 2848
scalar FogSequentialForward.fog[48].dispatcher remoteJobs 2987
scalar FogSequentialForward.fog[48].dispatcher probeQueries 0
scalar FogSequentialForward.fog[48].dispatcher probeAnswers 0
scalar FogSequentialForward.fog[48].dispatcher droppedJobsSLA 0
scalar FogSequentialForward.fog[48].dispatcher jobs_class_1 11992
scalar FogSequentialForward.fog[48].dispatcher remoteJobs_class_1 2987
scalar FogSequentialForward.fog[48].dispatcher localJobs_class_1 9005
scalar FogSequentialForward.fog[48].server[0] rho 1
scalar FogSequentialForward.fog[48].server[0] congestionRatio 0
scalar FogSequentialForward.fog[48].server[0] totalJobs 9005
scalar FogSequentialForward.fog[48].server[0] droppedJobsQueue 1
scalar FogSequentialForward.fog[48].server[0] droppedJobsTimout 0
scalar FogSequentialForward.fog[48].server[0] droppedJobsSLA 5384
scalar FogSequentialForward.fog[48].server[0] droppedJobsTotal 5385
scalar FogSequentialForward.fog[49].dispatcher localJobs 9014
scalar FogSequentialForward.fog[49].dispatcher internalJobs 9121
scalar FogSequentialForward.fog[49].dispatcher externalJobs 2828
scalar FogSequentialForward.fog[49].dispatcher remoteJobs 2935
scalar FogSequentialForward.fog[49].dispatcher probeQueries 0
scalar FogSequentialForward.fog[49].dispatcher probeAnswers 0
scalar FogSequentialForward.fog[49].dispatcher droppedJobsSLA 0
scalar FogSequentialForward.fog[49].dispatcher jobs_class_1 11949
scalar FogSequentialForward.fog[49].dispatcher remoteJobs_class_1 2935
scalar FogSequentialForward.fog[49].dispatcher localJobs_class_1 9014
scalar FogSequentialForward.fog[49].server[0] rho 1
scalar FogSequentialForward.fog[49].server[0] congestionRatio 0
scalar FogSequentialForward.fog[49].server[0] totalJobs 9014
scalar FogSequentialForward.fog[49].server[0] droppedJobsQueue 3
scalar FogSequentialForward.fog[49].server[0] droppedJobsTimout 0
scalar FogSequentialForward.fog[49].server[0] droppedJobsSLA 5416
scalar FogSequentialForward.fog[49].server[0] droppedJobsTotal 5419
scalar FogSequentialForward.fog[50].dispatcher localJobs 9051
scalar FogSequentialForward.fog[50].dispatcher internalJobs 9177
scalar FogSequentialForward.fog[50].dispatcher externalJobs 2820
scalar FogSequentialForward.fog[50].dispatcher remoteJobs 2946
scalar FogSequentialForward.fog[50].dispatcher probeQueries 0
scalar FogSequentialForward.fog[50].dispatcher probeAnswers 0
scalar FogSequentialForward.fog[50].dispatcher droppedJobsSLA 0
scalar FogSequentialForward.fog[50].dispatcher jobs_class_1 11997
scalar FogSequentialForward.fog[50].dispatcher remoteJobs_class_1 2946
scalar FogSequentialForward.fog[50].dispatcher localJobs_class_1 9051
scalar FogSequentialForward.fog[50].server[0] rho 1
scalar FogSequentialForward.fog[50].server[0] congestionRatio 0
scalar FogSequentialForward.fog[50].server[0] totalJobs 9051
scalar FogSequentialForward.fog[50].server[0] droppedJobsQueue 4
scalar FogSequentialForward.fog[50].server[0] droppedJobsTimout 0
scalar FogSequentialForward.fog[50].server[0] droppedJobsSLA 5524
scalar FogSequentialForward.fog[50].server[0] droppedJobsTotal 5528
scalar FogSequentialForward.fog[51].dispatcher localJobs 8935
scalar FogSequentialForward.fog[51].dispatcher internalJobs 8822
scalar FogSequentialForward.fog[51].dispatcher externalJobs 2848
scalar FogSequentialForward.fog[51].dispatcher remoteJobs 2735
scalar FogSequentialForward.fog[51].dispatcher probeQueries 0
scalar FogSequentialForward.fog[51].dispatcher probeAnswers 0
scalar FogSequentialForward.fog[51].dispatcher droppedJobsSLA 0
scalar FogSequentialForward.fog[51].dispatcher jobs_class_1 11670
scalar FogSequentialForward.fog[51].dispatcher remoteJobs_class_1 2735
scalar FogSequentialForward.fog[51].dispatcher localJobs_class_1 8935
scalar FogSequentialForward.fog[51].server[0] rho 1
scalar FogSequentialForward.fog[51].server[0] congestionRatio 0
scalar FogSequentialForward.fog[51].server[0] totalJobs 8935
scalar FogSequentialForward.fog[51].server[0] droppedJobsQueue 1
scalar FogSequentialForward.fog[51].server[0] droppedJobsTimout 0
scalar FogSequentialForward.fog[51].server[0] droppedJobsSLA 5282
scalar FogSequentialForward.fog[51].server[0] droppedJobsTotal 5283
scalar FogSequentialForward.fog[52].dispatcher localJobs 8978
scalar FogSequentialForward.fog[52].dispatcher internalJobs 8874
scalar FogSequentialForward.fog[52].dispatcher externalJobs 2870
scalar FogSequentialForward.fog[52].dispatcher remoteJobs 2766
scalar FogSequentialForward.fog[52].dispatcher probeQueries 0
scalar FogSequentialForward.fog[52].dispatcher probeAnswers 0
scalar FogSequentialForward.fog[52].dispatcher droppedJobsSLA 0
scalar FogSequentialForward.fog[52].dispatcher jobs_class_1 11744
scalar FogSequentialForward.fog[52].dispatcher remoteJobs_class_1 2766
scalar FogSequentialForward.fog[52].dispatcher localJobs_class_1 8978
scalar FogSequentialForward.fog[52].server[0] rho 1
scalar FogSequentialForward.fog[52].server[0] congestionRatio 0
scalar FogSequentialForward.fog[52].server[0] totalJobs 8978
scalar FogSequentialForward.fog[52].server[0] droppedJobsQueue 2
scalar FogSequentialForward.fog[52].server[0] droppedJobsTimout 0
scalar FogSequentialForward.fog[52].server[0] droppedJobsSLA 5339
scalar FogSequentialForward.fog[52].server[0] droppedJobsTotal 5341
scalar FogSequentialForward.fog[53].dispatcher localJobs 8992
scalar FogSequentialForward.fog[53].dispatcher internalJobs 9106
scalar FogSequentialForward.fog[53].dispatcher externalJobs 2864
scalar FogSequentialForward.fog[53].dispatcher remoteJobs 2978
scalar FogSequentialForward.fog[53].dispatcher probeQueries 0
scalar FogSequentialForward.fog[53].dispatcher probeAnswers 0
scalar FogSequentialForward.fog[53].dispatcher droppedJobsSLA 0
scalar FogSequentialForward.fog[53].dispatcher jobs_class_1 11970
scalar FogSequentialForward.fog[53].dispatcher remoteJobs_class_1 2978
scalar FogSequentialForward.fog[53].dispatcher localJobs_class_1 8992
scalar FogSequentialForward.fog[53].server[0] rho 1
scalar FogSequentialForward.fog[53].server[0] congestionRatio 0
scalar FogSequentialForward.fog[53].server[0] totalJobs 8992
scalar FogSequentialForward.fog[53].server[0] droppedJobsQueue 1
scalar FogSequentialForward.fog[53].server[0] droppedJobsTimout 0
scalar FogSequentialForward.fog[53].server[0] droppedJobsSLA 5404
scalar FogSequentialForward.fog[53].server[0] droppedJobsTotal 5405
scalar FogSequentialForward.fog[54].dispatcher localJobs 9015
scalar FogSequentialForward.fog[54].dispatcher internalJobs 8914
scalar FogSequentialForward.fog[54].dispatcher externalJobs 2947
scalar FogSequentialForward.fog[54].dispatcher remoteJobs 2846
scalar FogSequentialForward.fog[54].dispatcher probeQueries 0
scalar FogSequentialForward.fog[54].dispatcher probeAnswers 0
scalar FogSequentialForward.fog[54].dispatcher droppedJobsSLA 0
scalar FogSequentialForward.fog[54].dispatcher jobs_class_1 11861
scalar FogSequentialForward.fog[54].dispatcher remoteJobs_class_1 2846
scalar FogSequentialForward.fog[54].dispatcher localJobs_class_1 9015
scalar FogSequentialForward.fog[54].server[0] rho 1
scalar FogSequentialForward.fog[54].server[0] congestionRatio 0
scalar FogSequentialForward.fog[54].server[0] totalJobs 9015
scalar FogSequentialForward.fog[54].server[0] droppedJobsQueue 0
scalar FogSequentialForward.fog[54].server[0] droppedJobsTimout 0
scalar FogSequentialForward.fog[54].server[0] droppedJobsSLA 5403
scalar FogSequentialForward.fog[54].server[0] droppedJobsTotal 5403
scalar FogSequentialForward.fog[55].dispatcher localJobs 8965
scalar FogSequentialForward.fog[55].dispatcher internalJobs 8910
scalar FogSequentialForward.fog[55].dispatcher externalJobs 2777
scalar FogSequentialForward.fog[55].dispatcher remoteJobs 2722
scalar FogSequentialForward.fog[55].dispatcher probeQueries 0
scalar FogSequentialForward.fog[55].dispatcher probeAnswers 0
scalar FogSequentialForward.fog[55].dispatcher droppedJobsSLA 0
scalar FogSequentialForward.fog[55].dispatcher jobs_class_1 11687
scalar FogSequentialForward.fog[55].dispatcher remoteJobs_class_1 2722
scalar FogSequentialForward.fog[55].dispatcher localJobs_class_1 8965
scalar FogSequentialForward.fog[55].server[0] rho 0.99987888336182
scalar FogSequentialForward.fog[55].server[0] congestionRatio 0
scalar FogSequentialForward.fog[55].server[0] totalJobs 8965
scalar FogSequentialForward.fog[55].server[0] droppedJobsQueue 1
scalar FogSequentialForward.fog[55].server[0] droppedJobsTimout 0
scalar FogSequentialForward.fog[55].server[0] droppedJobsSLA 5437
scalar FogSequentialForward.fog[55].server[0] droppedJobsTotal 5438
scalar FogSequentialForward.fog[56].dispatcher localJobs 9019
scalar FogSequentialForward.fog[56].dispatcher internalJobs 8910
scalar FogSequentialForward.fog[56].dispatcher externalJobs 2936
scalar FogSequentialForward.fog[56].dispatcher remoteJobs 2827
scalar FogSequentialForward.fog[56].dispatcher probeQueries 0
scalar FogSequentialForward.fog[56].dispatcher probeAnswers 0
scalar FogSequentialForward.fog[56].dispatcher droppedJobsSLA 0
scalar FogSequentialForward.fog[56].dispatcher jobs_class_1 11846
scalar FogSequentialForward.fog[56].dispatcher remoteJobs_class_1 2827
scalar FogSequentialForward.fog[56].dispatcher localJobs_class_1 9019
scalar FogSequentialForward.fog[56].server[0] rho 1
scalar FogSequentialForward.fog[56].server[0] congestionRatio 0
scalar FogSequentialForward.fog[56].server[0] totalJobs 9019
scalar FogSequentialForward.fog[56].server[0] droppedJobsQueue 1
scalar FogSequentialForward.fog[56].server[0] droppedJobsTimout 0
scalar FogSequentialForward.fog[56].server[0] droppedJobsSLA 5366
scalar FogSequentialForward.fog[56].server[0] droppedJobsTotal 5367
scalar FogSequentialForward.fog[57].dispatcher localJobs 8977
scalar FogSequentialForward.fog[57].dispatcher internalJobs 8860
scalar FogSequentialForward.fog[57].dispatcher externalJobs 2919
scalar FogSequentialForward.fog[57].dispatcher remoteJobs 2802
scalar FogSequentialForward.fog[57].dispatcher probeQueries 0
scalar FogSequentialForward.fog[57].dispatcher probeAnswers 0
scalar FogSequentialForward.fog[57].dispatcher droppedJobsSLA 0
scalar FogSequentialForward.fog[57].dispatcher jobs_class_1 11779
scalar FogSequentialForward.fog[57].dispatcher remoteJobs_class_1 2802
scalar FogSequentialForward.fog[57].dispatcher localJobs_class_1 8977
scalar FogSequentialForward.fog[57].server[0] rho 0.99999421834946
scalar FogSequentialForward.fog[57].server[0] congestionRatio 0
scalar FogSequentialForward.fog[57].server[0] totalJobs 8977
scalar FogSequentialForward.fog[57].server[0] droppedJobsQueue 1
scalar FogSequentialForward.fog[57].server[0] droppedJobsTimout 0
scalar FogSequentialForward.fog[57].server[0] droppedJobsSLA 5394
scalar FogSequentialForward.fog[57].server[0] droppedJobsTotal 5395
scalar FogSequentialForward.fog[58].dispatcher localJobs 9004
scalar FogSequentialForward.fog[58].dispatcher internalJobs 9073
scalar FogSequentialForward.fog[58].dispatcher externalJobs 2831
scalar FogSequentialForward.fog[58].dispatcher remoteJobs 2900
scalar FogSequentialForward.fog[58].dispatcher probeQueries 0
scalar FogSequentialForward.fog[58].dispatcher probeAnswers 0
scalar FogSequentialForward.fog[58].dispatcher droppedJobsSLA 0
scalar FogSequentialForward.fog[58].dispatcher jobs_class_1 11904
scalar FogSequentialForward.fog[58].dispatcher remoteJobs_class_1 2900
scalar FogSequentialForward.fog[58].dispatcher localJobs_class_1 9004
scalar FogSequentialForward.fog[58].server[0] rho 0.9998624920845
scalar FogSequentialForward.fog[58].server[0] congestionRatio 0
scalar FogSequentialForward.fog[58].server[0] totalJobs 9004
scalar FogSequentialForward.fog[58].server[0] droppedJobsQueue 1
scalar FogSequentialForward.fog[58].server[0] droppedJobsTimout 0
scalar FogSequentialForward.fog[58].server[0] droppedJobsSLA 5417
scalar FogSequentialForward.fog[58].server[0] droppedJobsTotal 5418
scalar FogSequentialForward.fog[59].dispatcher localJobs 9032
scalar FogSequentialForward.fog[59].dispatcher internalJobs 8990
scalar FogSequentialForward.fog[59].dispatcher externalJobs 2890
scalar FogSequentialForward.fog[59].dispatcher remoteJobs 2848
scalar FogSequentialForward.fog[59].dispatcher probeQueries 0
scalar FogSequentialForward.fog[59].dispatcher probeAnswers 0
scalar FogSequentialForward.fog[59].dispatcher droppedJobsSLA 0
scalar FogSequentialForward.fog[59].dispatcher jobs_class_1 11880
scalar FogSequentialForward.fog[59].dispatcher remoteJobs_class_1 2848
scalar FogSequentialForward.fog[59].dispatcher localJobs_class_1 9032
scalar FogSequentialForward.fog[59].server[0] rho 1
scalar FogSequentialForward.fog[59].server[0] congestionRatio 0
scalar FogSequentialForward.fog[59].server[0] totalJobs 9032
scalar FogSequentialForward.fog[59].server[0] droppedJobsQueue 0
scalar FogSequentialForward.fog[59].server[0] droppedJobsTimout 0
scalar FogSequentialForward.fog[59].server[0] droppedJobsSLA 5441
scalar FogSequentialForward.fog[59].server[0] droppedJobsTotal 5441
scalar FogSequentialForward.fog[60].dispatcher localJobs 8979
scalar FogSequentialForward.fog[60].dispatcher internalJobs 9018
scalar FogSequentialForward.fog[60].dispatcher externalJobs 2802
scalar FogSequentialForward.fog[60].dispatcher remoteJobs 2841
scalar FogSequentialForward.fog[60].dispatcher probeQueries 0
scalar FogSequentialForward.fog[60].dispatcher probeAnswers 0
scalar FogSequentialForward.fog[60].dispatcher droppedJobsSLA 0
scalar FogSequentialForward.fog[60].dispatcher jobs_class_1 11820
scalar FogSequentialForward.fog[60].dispatcher remoteJobs_class_1 2841
scalar FogSequentialForward.fog[60].dispatcher localJobs_class_1 8979
scalar FogSequentialForward.fog[60].server[0] rho 0.99939262866974
scalar FogSequentialForward.fog[60].server[0] congestionRatio 0
scalar FogSequentialForward.fog[60].server[0] totalJobs 8979
scalar FogSequentialForward.fog[60].server[0] droppedJobsQueue 0
scalar FogSequentialForward.fog[60].server[0] droppedJobsTimout 0
scalar FogSequentialForward.fog[60].server[0] droppedJobsSLA 5425
scalar FogSequentialForward.fog[60].server[0] droppedJobsTotal 5425
scalar FogSequentialForward.fog[61].dispatcher localJobs 9003
scalar FogSequentialForward.fog[61].dispatcher internalJobs 8997
scalar FogSequentialForward.fog[61].dispatcher externalJobs 2918
scalar FogSequentialForward.fog[61].dispatcher remoteJobs 2912
scalar FogSequentialForward.fog[61].dispatcher probeQueries 0
scalar FogSequentialForward.fog[61].dispatcher probeAnswers 0
scalar FogSequentialForward.fog[61].dispatcher droppedJobsSLA 0
scalar FogSequentialForward.fog[61].dispatcher jobs_class_1 11915
scalar FogSequentialForward.fog[61].dispatcher remoteJobs_class_1 2912
scalar FogSequentialForward.fog[61].dispatcher localJobs_class_1 9003
scalar FogSequentialForward.fog[61].server[0] rho 1
scalar FogSequentialForward.fog[61].server[0] congestionRatio 0
scalar FogSequentialForward.fog[61].server[0] totalJobs 9003
scalar FogSequentialForward.fog[61].server[0] droppedJobsQueue 0
scalar FogSequentialForward.fog[61].server[0] droppedJobsTimout 0
scalar FogSequentialForward.fog[61].server[0] droppedJobsSLA 5375
scalar FogSequentialForward.fog[61].server[0] droppedJobsTotal 5375
scalar FogSequentialForward.fog[62].dispatcher localJobs 9000
scalar FogSequentialForward.fog[62].dispatcher internalJobs 9087
scalar FogSequentialForward.fog[62].dispatcher externalJobs 2877
scalar FogSequentialForward.fog[62].dispatcher remoteJobs 2964
scalar FogSequentialForward.fog[62].dispatcher probeQueries 0
scalar FogSequentialForward.fog[62].dispatcher probeAnswers 0
scalar FogSequentialForward.fog[62].dispatcher droppedJobsSLA 0
scalar FogSequentialForward.fog[62].dispatcher jobs_class_1 11964
scalar FogSequentialForward.fog[62].dispatcher remoteJobs_class_1 2964
scalar FogSequentialForward.fog[62].dispatcher localJobs_class_1 9000
scalar FogSequentialForward.fog[62].server[0] rho 0.99957513809204
scalar FogSequentialForward.fog[62].server[0] congestionRatio 0
scalar FogSequentialForward.fog[62].server[0] totalJobs 9000
scalar FogSequentialForward.fog[62].server[0] droppedJobsQueue 0
scalar FogSequentialForward.fog[62].server[0] droppedJobsTimout 0
scalar FogSequentialForward.fog[62].server[0] droppedJobsSLA 5503
scalar FogSequentialForward.fog[62].server[0] droppedJobsTotal 5503
scalar FogSequentialForward.fog[63].dispatcher localJobs 8977
scalar FogSequentialForward.fog[63].dispatcher internalJobs 8864
scalar FogSequentialForward.fog[63].dispatcher externalJobs 2912
scalar FogSequentialForward.fog[63].dispatcher remoteJobs 2799
scalar FogSequentialForward.fog[63].dispatcher probeQueries 0
scalar FogSequentialForward.fog[63].dispatcher probeAnswers 0
scalar FogSequentialForward.fog[63].dispatcher droppedJobsSLA 0
scalar FogSequentialForward.fog[63].dispatcher jobs_class_1 11776
scalar FogSequentialForward.fog[63].dispatcher remoteJobs_class_1 2799
scalar FogSequentialForward.fog[63].dispatcher localJobs_class_1 8977
scalar FogSequentialForward.fog[63].server[0] rho 0.99965518712997
scalar FogSequentialForward.fog[63].server[0] congestionRatio 0
scalar FogSequentialForward.fog[63].server[0] totalJobs 8977
scalar FogSequentialForward.fog[63].server[0] droppedJobsQueue 1
scalar FogSequentialForward.fog[63].server[0] droppedJobsTimout 0
scalar FogSequentialForward.fog[63].server[0] droppedJobsSLA 5398
scalar FogSequentialForward.fog[63].server[0] droppedJobsTotal 5399
scalar FogSequentialForward.fog[64].dispatcher localJobs 9063
scalar FogSequentialForward.fog[64].dispatcher internalJobs 9135
scalar FogSequentialForward.fog[64].dispatcher externalJobs 2921
scalar FogSequentialForward.fog[64].dispatcher remoteJobs 2993
scalar FogSequentialForward.fog[64].dispatcher probeQueries 0
scalar FogSequentialForward.fog[64].dispatcher probeAnswers 0
scalar FogSequentialForward.fog[64].dispatcher droppedJobsSLA 0
scalar FogSequentialForward.fog[64].dispatcher jobs_class_1 12056
scalar FogSequentialForward.fog[64].dispatcher remoteJobs_class_1 2993
scalar FogSequentialForward.fog[64].dispatcher localJobs_class_1 9063
scalar FogSequentialForward.fog[64].server[0] rho 1
scalar FogSequentialForward.fog[64].server[0] congestionRatio 0
scalar FogSequentialForward.fog[64].server[0] totalJobs 9063
scalar FogSequentialForward.fog[64].server[0] droppedJobsQueue 1
scalar FogSequentialForward.fog[64].server[0] droppedJobsTimout 0
scalar FogSequentialForward.fog[64].server[0] droppedJobsSLA 5474
scalar FogSequentialForward.fog[64].server[0] droppedJobsTotal 5475
scalar FogSequentialForward.fog[65].dispatcher localJobs 9019
scalar FogSequentialForward.fog[65].dispatcher internalJobs 8951
scalar FogSequentialForward.fog[65].dispatcher externalJobs 2941
scalar FogSequentialForward.fog[65].dispatcher remoteJobs 2873
scalar FogSequentialForward.fog[65].dispatcher probeQueries 0
scalar FogSequentialForward.fog[65].dispatcher probeAnswers 0
scalar FogSequentialForward.fog[65].dispatcher droppedJobsSLA 0
scalar FogSequentialForward.fog[65].dispatcher jobs_class_1 11892
scalar FogSequentialForward.fog[65].dispatcher remoteJobs_class_1 2873
scalar FogSequentialForward.fog[65].dispatcher localJobs_class_1 9019
scalar FogSequentialForward.fog[65].server[0] rho 1
scalar FogSequentialForward.fog[65].server[0] congestionRatio 0
scalar FogSequentialForward.fog[65].server[0] totalJobs 9019
scalar FogSequentialForward.fog[65].server[0] droppedJobsQueue 1
scalar FogSequentialForward.fog[65].server[0] droppedJobsTimout 0
scalar FogSequentialForward.fog[65].server[0] droppedJobsSLA 5497
scalar FogSequentialForward.fog[65].server[0] droppedJobsTotal 5498
scalar FogSequentialForward.fog[66].dispatcher localJobs 9008
scalar FogSequentialForward.fog[66].dispatcher internalJobs 9033
scalar FogSequentialForward.fog[66].dispatcher externalJobs 2879
scalar FogSequentialForward.fog[66].dispatcher remoteJobs 2904
scalar FogSequentialForward.fog[66].dispatcher probeQueries 0
scalar FogSequentialForward.fog[66].dispatcher probeAnswers 0
scalar FogSequentialForward.fog[66].dispatcher droppedJobsSLA 0
scalar FogSequentialForward.fog[66].dispatcher jobs_class_1 11912
scalar FogSequentialForward.fog[66].dispatcher remoteJobs_class_1 2904
scalar FogSequentialForward.fog[66].dispatcher localJobs_class_1 9008
scalar FogSequentialForward.fog[66].server[0] rho 1
scalar FogSequentialForward.fog[66].server[0] congestionRatio 0
scalar FogSequentialForward.fog[66].server[0] totalJobs 9008
scalar FogSequentialForward.fog[66].server[0] droppedJobsQueue 2
scalar FogSequentialForward.fog[66].server[0] droppedJobsTimout 0
scalar FogSequentialForward.fog[66].server[0] droppedJobsSLA 5482
scalar FogSequentialForward.fog[66].server[0] droppedJobsTotal 5484
scalar FogSequentialForward.fog[67].dispatcher localJobs 9028
scalar FogSequentialForward.fog[67].dispatcher internalJobs 9051
scalar FogSequentialForward.fog[67].dispatcher externalJobs 2994
scalar FogSequentialForward.fog[67].dispatcher remoteJobs 3017
scalar FogSequentialForward.fog[67].dispatcher probeQueries 0
scalar FogSequentialForward.fog[67].dispatcher probeAnswers 0
scalar FogSequentialForward.fog[67].dispatcher droppedJobsSLA 0
scalar FogSequentialForward.fog[67].dispatcher jobs_class_1 12045
scalar FogSequentialForward.fog[67].dispatcher remoteJobs_class_1 3017
scalar FogSequentialForward.fog[67].dispatcher localJobs_class_1 9028
scalar FogSequentialForward.fog[67].server[0] rho 1
scalar FogSequentialForward.fog[67].server[0] congestionRatio 0
scalar FogSequentialForward.fog[67].server[0] totalJobs 9028
scalar FogSequentialForward.fog[67].server[0] droppedJobsQueue 2
scalar FogSequentialForward.fog[67].server[0] droppedJobsTimout 0
scalar FogSequentialForward.fog[67].server[0] droppedJobsSLA 5433
scalar FogSequentialForward.fog[67].server[0] droppedJobsTotal 5435
scalar FogSequentialForward.fog[68].dispatcher localJobs 9038
scalar FogSequentialForward.fog[68].dispatcher internalJobs 9064
scalar FogSequentialForward.fog[68].dispatcher externalJobs 2910
scalar FogSequentialForward.fog[68].dispatcher remoteJobs 2936
scalar FogSequentialForward.fog[68].dispatcher probeQueries 0
scalar FogSequentialForward.fog[68].dispatcher probeAnswers 0
scalar FogSequentialForward.fog[68].dispatcher droppedJobsSLA 0
scalar FogSequentialForward.fog[68].dispatcher jobs_class_1 11974
scalar FogSequentialForward.fog[68].dispatcher remoteJobs_class_1 2936
scalar FogSequentialForward.fog[68].dispatcher localJobs_class_1 9038
scalar FogSequentialForward.fog[68].server[0] rho 0.99970883131027
scalar FogSequentialForward.fog[68].server[0] congestionRatio 0
scalar FogSequentialForward.fog[68].server[0] totalJobs 9038
scalar FogSequentialForward.fog[68].server[0] droppedJobsQueue 2
scalar FogSequentialForward.fog[68].server[0] droppedJobsTimout 0
scalar FogSequentialForward.fog[68].server[0] droppedJobsSLA 5511
scalar FogSequentialForward.fog[68].server[0] droppedJobsTotal 5513
scalar FogSequentialForward.fog[69].dispatcher localJobs 8952
scalar FogSequentialForward.fog[69].dispatcher internalJobs 8771
scalar FogSequentialForward.fog[69].dispatcher externalJobs 2889
scalar FogSequentialForward.fog[69].dispatcher remoteJobs 2708
scalar FogSequentialForward.fog[69].dispatcher probeQueries 0
scalar FogSequentialForward.fog[69].dispatcher probeAnswers 0
scalar FogSequentialForward.fog[69].dispatcher droppedJobsSLA 0
scalar FogSequentialForward.fog[69].dispatcher jobs_class_1 11660
scalar FogSequentialForward.fog[69].dispatcher remoteJobs_class_1 2708
scalar FogSequentialForward.fog[69].dispatcher localJobs_class_1 8952
scalar FogSequentialForward.fog[69].server[0] rho 0.9996275305748
scalar FogSequentialForward.fog[69].server[0] congestionRatio 0
scalar FogSequentialForward.fog[69].server[0] totalJobs 8952
scalar FogSequentialForward.fog[69].server[0] droppedJobsQueue 3
scalar FogSequentialForward.fog[69].server[0] droppedJobsTimout 0
scalar FogSequentialForward.fog[69].server[0] droppedJobsSLA 5330
scalar FogSequentialForward.fog[69].server[0] droppedJobsTotal 5333
scalar FogSequentialForward.fog[70].dispatcher localJobs 9028
scalar FogSequentialForward.fog[70].dispatcher internalJobs 9023
scalar FogSequentialForward.fog[70].dispatcher externalJobs 2895
scalar FogSequentialForward.fog[70].dispatcher remoteJobs 2890
scalar FogSequentialForward.fog[70].dispatcher probeQueries 0
scalar FogSequentialForward.fog[70].dispatcher probeAnswers 0
scalar FogSequentialForward.fog[70].dispatcher droppedJobsSLA 0
scalar FogSequentialForward.fog[70].dispatcher jobs_class_1 11918
scalar FogSequentialForward.fog[70].dispatcher remoteJobs_class_1 2890
scalar FogSequentialForward.fog[70].dispatcher localJobs_class_1 9028
scalar FogSequentialForward.fog[70].server[0] rho 1
scalar FogSequentialForward.fog[70].server[0] congestionRatio 0
scalar FogSequentialForward.fog[70].server[0] totalJobs 9028
scalar FogSequentialForward.fog[70].server[0] droppedJobsQueue 1
scalar FogSequentialForward.fog[70].server[0] droppedJobsTimout 0
scalar FogSequentialForward.fog[70].server[0] droppedJobsSLA 5380
scalar FogSequentialForward.fog[70].server[0] droppedJobsTotal 5381
scalar FogSequentialForward.fog[71].dispatcher localJobs 8988
scalar FogSequentialForward.fog[71].dispatcher internalJobs 8940
scalar FogSequentialForward.fog[71].dispatcher externalJobs 2912
scalar FogSequentialForward.fog[71].dispatcher remoteJobs 2864
scalar FogSequentialForward.fog[71].dispatcher probeQueries 0
scalar FogSequentialForward.fog[71].dispatcher probeAnswers 0
scalar FogSequentialForward.fog[71].dispatcher droppedJobsSLA 0
scalar FogSequentialForward.fog[71].dispatcher jobs_class_1 11852
scalar FogSequentialForward.fog[71].dispatcher remoteJobs_class_1 2864
scalar FogSequentialForward.fog[71].dispatcher localJobs_class_1 8988
scalar FogSequentialForward.fog[71].server[0] rho 0.99959325790405
scalar FogSequentialForward.fog[71].server[0] congestionRatio 0
scalar FogSequentialForward.fog[71].server[0] totalJobs 8988
scalar FogSequentialForward.fog[71].server[0] droppedJobsQueue 0
scalar FogSequentialForward.fog[71].server[0] droppedJobsTimout 0
[...]
scalar FogSequentialForward.fog[82].server[0] droppedJobsTimout 0
scalar FogSequentialForward.fog[82].server[0] droppedJobsSLA 5437
scalar FogSequentialForward.fog[82].server[0] droppedJobsTotal 5437
scalar FogSequentialForward.fog[83].dispatcher localJobs 8993
scalar FogSequentialForward.fog[83].dispatcher internalJobs 8996
scalar FogSequentialForward.fog[83].dispatcher externalJobs 2813
scalar FogSequentialForward.fog[83].dispatcher remoteJobs 2816
scalar FogSequentialForward.fog[83].dispatcher probeQueries 0
scalar FogSequentialForward.fog[83].dispatcher probeAnswers 0
scalar FogSequentialForward.fog[83].dispatcher droppedJobsSLA 0
scalar FogSequentialForward.fog[83].dispatcher jobs_class_1 11809
scalar FogSequentialForward.fog[83].dispatcher remoteJobs_class_1 2816
scalar FogSequentialForward.fog[83].dispatcher localJobs_class_1 8993
scalar FogSequentialForward.fog[83].server[0] rho 0.99941873550415
scalar FogSequentialForward.fog[83].server[0] congestionRatio 0
scalar FogSequentialForward.fog[83].server[0] totalJobs 8993
scalar FogSequentialForward.fog[83].server[0] droppedJobsQueue 3
scalar FogSequentialForward.fog[83].server[0] droppedJobsTimout 0
scalar FogSequentialForward.fog[83].server[0] droppedJobsSLA 5338
scalar FogSequentialForward.fog[83].server[0] droppedJobsTotal 5341
scalar FogSequentialForward.fog[84].dispatcher localJobs 8929
scalar FogSequentialForward.fog[84].dispatcher internalJobs 8758
scalar FogSequentialForward.fog[84].dispatcher externalJobs 2864
scalar FogSequentialForward.fog[84].dispatcher remoteJobs 2693
scalar FogSequentialForward.fog[84].dispatcher probeQueries 0
scalar FogSequentialForward.fog[84].dispatcher probeAnswers 0
scalar FogSequentialForward.fog[84].dispatcher droppedJobsSLA 0
scalar FogSequentialForward.fog[84].dispatcher jobs_class_1 11622
scalar FogSequentialForward.fog[84].dispatcher remoteJobs_class_1 2693
scalar FogSequentialForward.fog[84].dispatcher localJobs_class_1 8929
scalar FogSequentialForward.fog[84].server[0] rho 1
scalar FogSequentialForward.fog[84].server[0] congestionRatio 0
scalar FogSequentialForward.fog[84].server[0] totalJobs 8929
scalar FogSequentialForward.fog[84].server[0] droppedJobsQueue 1
scalar FogSequentialForward.fog[84].server[0] droppedJobsTimout 0
scalar FogSequentialForward.fog[84].server[0] droppedJobsSLA 5390
scalar FogSequentialForward.fog[84].server[0] droppedJobsTotal 5391
scalar FogSequentialForward.fog[85].dispatcher localJobs 8995
scalar FogSequentialForward.fog[85].dispatcher internalJobs 8963
scalar FogSequentialForward.fog[85].dispatcher externalJobs 2924
scalar FogSequentialForward.fog[85].dispatcher remoteJobs 2892
scalar FogSequentialForward.fog[85].dispatcher probeQueries 0
scalar FogSequentialForward.fog[85].dispatcher probeAnswers 0
scalar FogSequentialForward.fog[85].dispatcher droppedJobsSLA 0
scalar FogSequentialForward.fog[85].dispatcher jobs_class_1 11887
scalar FogSequentialForward.fog[85].dispatcher remoteJobs_class_1 2892
scalar FogSequentialForward.fog[85].dispatcher localJobs_class_1 8995
scalar FogSequentialForward.fog[85].server[0] rho 1
scalar FogSequentialForward.fog[85].server[0] congestionRatio 0
scalar FogSequentialForward.fog[85].server[0] totalJobs 8995
scalar FogSequentialForward.fog[85].server[0] droppedJobsQueue 3
scalar FogSequentialForward.fog[85].server[0] droppedJobsTimout 0
scalar FogSequentialForward.fog[85].server[0] droppedJobsSLA 5403
scalar FogSequentialForward.fog[85].server[0] droppedJobsTotal 5406
scalar FogSequentialForward.fog[86].dispatcher localJobs 9042
scalar FogSequentialForward.fog[86].dispatcher internalJobs 8976
scalar FogSequentialForward.fog[86].dispatcher externalJobs 2948
scalar FogSequentialForward.fog[86].dispatcher remoteJobs 2882
scalar FogSequentialForward.fog[86].dispatcher probeQueries 0
scalar FogSequentialForward.fog[86].dispatcher probeAnswers 0
scalar FogSequentialForward.fog[86].dispatcher droppedJobsSLA 0
scalar FogSequentialForward.fog[86].dispatcher jobs_class_1 11924
scalar FogSequentialForward.fog[86].dispatcher remoteJobs_class_1 2882
scalar FogSequentialForward.fog[86].dispatcher localJobs_class_1 9042
scalar FogSequentialForward.fog[86].server[0] rho 1
scalar FogSequentialForward.fog[86].server[0] congestionRatio 0
scalar FogSequentialForward.fog[86].server[0] totalJobs 9042
scalar FogSequentialForward.fog[86].server[0] droppedJobsQueue 2
scalar FogSequentialForward.fog[86].server[0] droppedJobsTimout 0
scalar FogSequentialForward.fog[86].server[0] droppedJobsSLA 5445
scalar FogSequentialForward.fog[86].server[0] droppedJobsTotal 5447
scalar FogSequentialForward.fog[87].dispatcher localJobs 9014
scalar FogSequentialForward.fog[87].dispatcher internalJobs 9075
scalar FogSequentialForward.fog[87].dispatcher externalJobs 2826
scalar FogSequentialForward.fog[87].dispatcher remoteJobs 2887
scalar FogSequentialForward.fog[87].dispatcher probeQueries 0
scalar FogSequentialForward.fog[87].dispatcher probeAnswers 0
scalar FogSequentialForward.fog[87].dispatcher droppedJobsSLA 0
scalar FogSequentialForward.fog[87].dispatcher jobs_class_1 11901
scalar FogSequentialForward.fog[87].dispatcher remoteJobs_class_1 2887
scalar FogSequentialForward.fog[87].dispatcher localJobs_class_1 9014
scalar FogSequentialForward.fog[87].server[0] rho 1
scalar FogSequentialForward.fog[87].server[0] congestionRatio 0
scalar FogSequentialForward.fog[87].server[0] totalJobs 9014
scalar FogSequentialForward.fog[87].server[0] droppedJobsQueue 1
scalar FogSequentialForward.fog[87].server[0] droppedJobsTimout 0
scalar FogSequentialForward.fog[87].server[0] droppedJobsSLA 5390
scalar FogSequentialForward.fog[87].server[0] droppedJobsTotal 5391
scalar FogSequentialForward.fog[88].dispatcher localJobs 9035
scalar FogSequentialForward.fog[88].dispatcher internalJobs 9136
scalar FogSequentialForward.fog[88].dispatcher externalJobs 2860
scalar FogSequentialForward.fog[88].dispatcher remoteJobs 2961
scalar FogSequentialForward.fog[88].dispatcher probeQueries 0
scalar FogSequentialForward.fog[88].dispatcher probeAnswers 0
scalar FogSequentialForward.fog[88].dispatcher droppedJobsSLA 0
scalar FogSequentialForward.fog[88].dispatcher jobs_class_1 11996
scalar FogSequentialForward.fog[88].dispatcher remoteJobs_class_1 2961
scalar FogSequentialForward.fog[88].dispatcher localJobs_class_1 9035
scalar FogSequentialForward.fog[88].server[0] rho 0.99930942058563
scalar FogSequentialForward.fog[88].server[0] congestionRatio 0
scalar FogSequentialForward.fog[88].server[0] totalJobs 9035
scalar FogSequentialForward.fog[88].server[0] droppedJobsQueue 1
scalar FogSequentialForward.fog[88].server[0] droppedJobsTimout 0
scalar FogSequentialForward.fog[88].server[0] droppedJobsSLA 5538
scalar FogSequentialForward.fog[88].server[0] droppedJobsTotal 5539
scalar FogSequentialForward.fog[89].dispatcher localJobs 9052
scalar FogSequentialForward.fog[89].dispatcher internalJobs 9097
scalar FogSequentialForward.fog[89].dispatcher externalJobs 2974
scalar FogSequentialForward.fog[89].dispatcher remoteJobs 3019
scalar FogSequentialForward.fog[89].dispatcher probeQueries 0
scalar FogSequentialForward.fog[89].dispatcher probeAnswers 0
scalar FogSequentialForward.fog[89].dispatcher droppedJobsSLA 0
scalar FogSequentialForward.fog[89].dispatcher jobs_class_1 12071
scalar FogSequentialForward.fog[89].dispatcher remoteJobs_class_1 3019
scalar FogSequentialForward.fog[89].dispatcher localJobs_class_1 9052
scalar FogSequentialForward.fog[89].server[0] rho 0.9996343255043
scalar FogSequentialForward.fog[89].server[0] congestionRatio 0
scalar FogSequentialForward.fog[89].server[0] totalJobs 9052
scalar FogSequentialForward.fog[89].server[0] droppedJobsQueue 4
scalar FogSequentialForward.fog[89].server[0] droppedJobsTimout 0
scalar FogSequentialForward.fog[89].server[0] droppedJobsSLA 5400
scalar FogSequentialForward.fog[89].server[0] droppedJobsTotal 5404
scalar FogSequentialForward.fog[90].dispatcher localJobs 8970
scalar FogSequentialForward.fog[90].dispatcher internalJobs 8955
scalar FogSequentialForward.fog[90].dispatcher externalJobs 2897
scalar FogSequentialForward.fog[90].dispatcher remoteJobs 2882
scalar FogSequentialForward.fog[90].dispatcher probeQueries 0
scalar FogSequentialForward.fog[90].dispatcher probeAnswers 0
scalar FogSequentialForward.fog[90].dispatcher droppedJobsSLA 0
scalar FogSequentialForward.fog[90].dispatcher jobs_class_1 11852
scalar FogSequentialForward.fog[90].dispatcher remoteJobs_class_1 2882
scalar FogSequentialForward.fog[90].dispatcher localJobs_class_1 8970
scalar FogSequentialForward.fog[90].server[0] rho 1
scalar FogSequentialForward.fog[90].server[0] congestionRatio 0
scalar FogSequentialForward.fog[90].server[0] totalJobs 8970
scalar FogSequentialForward.fog[90].server[0] droppedJobsQueue 3
scalar FogSequentialForward.fog[90].server[0] droppedJobsTimout 0
scalar FogSequentialForward.fog[90].server[0] droppedJobsSLA 5245
scalar FogSequentialForward.fog[90].server[0] droppedJobsTotal 5248
scalar FogSequentialForward.fog[91].dispatcher localJobs 9007
scalar FogSequentialForward.fog[91].dispatcher internalJobs 8996
scalar FogSequentialForward.fog[91].dispatcher externalJobs 2915
scalar FogSequentialForward.fog[91].dispatcher remoteJobs 2904
scalar FogSequentialForward.fog[91].dispatcher probeQueries 0
scalar FogSequentialForward.fog[91].dispatcher probeAnswers 0
scalar FogSequentialForward.fog[91].dispatcher droppedJobsSLA 0
scalar FogSequentialForward.fog[91].dispatcher jobs_class_1 11911
scalar FogSequentialForward.fog[91].dispatcher remoteJobs_class_1 2904
scalar FogSequentialForward.fog[91].dispatcher localJobs_class_1 9007
scalar FogSequentialForward.fog[91].server[0] rho 0.99991810321808
scalar FogSequentialForward.fog[91].server[0] congestionRatio 0
scalar FogSequentialForward.fog[91].server[0] totalJobs 9007
scalar FogSequentialForward.fog[91].server[0] droppedJobsQueue 0
scalar FogSequentialForward.fog[91].server[0] droppedJobsTimout 0
scalar FogSequentialForward.fog[91].server[0] droppedJobsSLA 5466
scalar FogSequentialForward.fog[91].server[0] droppedJobsTotal 5466
scalar FogSequentialForward.fog[92].dispatcher localJobs 9057
scalar FogSequentialForward.fog[92].dispatcher internalJobs 9131
scalar FogSequentialForward.fog[92].dispatcher externalJobs 2920
scalar FogSequentialForward.fog[92].dispatcher remoteJobs 2994
scalar FogSequentialForward.fog[92].dispatcher probeQueries 0
scalar FogSequentialForward.fog[92].dispatcher probeAnswers 0
scalar FogSequentialForward.fog[92].dispatcher droppedJobsSLA 0
scalar FogSequentialForward.fog[92].dispatcher jobs_class_1 12051
scalar FogSequentialForward.fog[92].dispatcher remoteJobs_class_1 2994
scalar FogSequentialForward.fog[92].dispatcher localJobs_class_1 9057
scalar FogSequentialForward.fog[92].server[0] rho 1
scalar FogSequentialForward.fog[92].server[0] congestionRatio 0
scalar FogSequentialForward.fog[92].server[0] totalJobs 9057
scalar FogSequentialForward.fog[92].server[0] droppedJobsQueue 3
scalar FogSequentialForward.fog[92].server[0] droppedJobsTimout 0
scalar FogSequentialForward.fog[92].server[0] droppedJobsSLA 5518
scalar FogSequentialForward.fog[92].server[0] droppedJobsTotal 5521
scalar FogSequentialForward.fog[93].dispatcher localJobs 9008
scalar FogSequentialForward.fog[93].dispatcher internalJobs 8978
scalar FogSequentialForward.fog[93].dispatcher externalJobs 2895
scalar FogSequentialForward.fog[93].dispatcher remoteJobs 2865
scalar FogSequentialForward.fog[93].dispatcher probeQueries 0
scalar FogSequentialForward.fog[93].dispatcher probeAnswers 0
scalar FogSequentialForward.fog[93].dispatcher droppedJobsSLA 0
scalar FogSequentialForward.fog[93].dispatcher jobs_class_1 11873
scalar FogSequentialForward.fog[93].dispatcher remoteJobs_class_1 2865
scalar FogSequentialForward.fog[93].dispatcher localJobs_class_1 9008
scalar FogSequentialForward.fog[93].server[0] rho 1
scalar FogSequentialForward.fog[93].server[0] congestionRatio 0
scalar FogSequentialForward.fog[93].server[0] totalJobs 9008
scalar FogSequentialForward.fog[93].server[0] droppedJobsQueue 0
scalar FogSequentialForward.fog[93].server[0] droppedJobsTimout 0
scalar FogSequentialForward.fog[93].server[0] droppedJobsSLA 5425
scalar FogSequentialForward.fog[93].server[0] droppedJobsTotal 5425
scalar FogSequentialForward.fog[94].dispatcher localJobs 9024
scalar FogSequentialForward.fog[94].dispatcher internalJobs 8923
scalar FogSequentialForward.fog[94].dispatcher externalJobs 2947
scalar FogSequentialForward.fog[94].dispatcher remoteJobs 2846
scalar FogSequentialForward.fog[94].dispatcher probeQueries 0
scalar FogSequentialForward.fog[94].dispatcher probeAnswers 0
scalar FogSequentialForward.fog[94].dispatcher droppedJobsSLA 0
scalar FogSequentialForward.fog[94].dispatcher jobs_class_1 11870
scalar FogSequentialForward.fog[94].dispatcher remoteJobs_class_1 2846
scalar FogSequentialForward.fog[94].dispatcher localJobs_class_1 9024
scalar FogSequentialForward.fog[94].server[0] rho 1
scalar FogSequentialForward.fog[94].server[0] congestionRatio 0
scalar FogSequentialForward.fog[94].server[0] totalJobs 9024
scalar FogSequentialForward.fog[94].server[0] droppedJobsQueue 3
scalar FogSequentialForward.fog[94].server[0] droppedJobsTimout 0
scalar FogSequentialForward.fog[94].server[0] droppedJobsSLA 5427
scalar FogSequentialForward.fog[94].server[0] droppedJobsTotal 5430
scalar FogSequentialForward.fog[95].dispatcher localJobs 9064
scalar FogSequentialForward.fog[95].dispatcher internalJobs 9132
scalar FogSequentialForward.fog[95].dispatcher externalJobs 2920
scalar FogSequentialForward.fog[95].dispatcher remoteJobs 2988
scalar FogSequentialForward.fog[95].dispatcher probeQueries 0
scalar FogSequentialForward.fog[95].dispatcher probeAnswers 0
scalar FogSequentialForward.fog[95].dispatcher droppedJobsSLA 0
scalar FogSequentialForward.fog[95].dispatcher jobs_class_1 12052
scalar FogSequentialForward.fog[95].dispatcher remoteJobs_class_1 2988
scalar FogSequentialForward.fog[95].dispatcher localJobs_class_1 9064
scalar FogSequentialForward.fog[95].server[0] rho 0.99988806247711
scalar FogSequentialForward.fog[95].server[0] congestionRatio 0
scalar FogSequentialForward.fog[95].server[0] totalJobs 9064
scalar FogSequentialForward.fog[95].server[0] droppedJobsQueue 0
scalar FogSequentialForward.fog[95].server[0] droppedJobsTimout 0
scalar FogSequentialForward.fog[95].server[0] droppedJobsSLA 5486
scalar FogSequentialForward.fog[95].server[0] droppedJobsTotal 5486
scalar FogSequentialForward.fog[96].dispatcher localJobs 9026
scalar FogSequentialForward.fog[96].dispatcher internalJobs 9084
scalar FogSequentialForward.fog[96].dispatcher externalJobs 2912
scalar FogSequentialForward.fog[96].dispatcher remoteJobs 2970
scalar FogSequentialForward.fog[96].dispatcher probeQueries 0
scalar FogSequentialForward.fog[96].dispatcher probeAnswers 0
scalar FogSequentialForward.fog[96].dispatcher droppedJobsSLA 0
scalar FogSequentialForward.fog[96].dispatcher jobs_class_1 11996
scalar FogSequentialForward.fog[96].dispatcher remoteJobs_class_1 2970
scalar FogSequentialForward.fog[96].dispatcher localJobs_class_1 9026
scalar FogSequentialForward.fog[96].server[0] rho 0.99992400407791
scalar FogSequentialForward.fog[96].server[0] congestionRatio 0
scalar FogSequentialForward.fog[96].server[0] totalJobs 9026
scalar FogSequentialForward.fog[96].server[0] droppedJobsQueue 2
scalar FogSequentialForward.fog[96].server[0] droppedJobsTimout 0
scalar FogSequentialForward.fog[96].server[0] droppedJobsSLA 5445
scalar FogSequentialForward.fog[96].server[0] droppedJobsTotal 5447
scalar FogSequentialForward.fog[97].dispatcher localJobs 9019
scalar FogSequentialForward.fog[97].dispatcher internalJobs 9047
scalar FogSequentialForward.fog[97].dispatcher externalJobs 2886
scalar FogSequentialForward.fog[97].dispatcher remoteJobs 2914
scalar FogSequentialForward.fog[97].dispatcher probeQueries 0
scalar FogSequentialForward.fog[97].dispatcher probeAnswers 0
scalar FogSequentialForward.fog[97].dispatcher droppedJobsSLA 0
scalar FogSequentialForward.fog[97].dispatcher jobs_class_1 11933
scalar FogSequentialForward.fog[97].dispatcher remoteJobs_class_1 2914
scalar FogSequentialForward.fog[97].dispatcher localJobs_class_1 9019
scalar FogSequentialForward.fog[97].server[0] rho 0.99948310852051
scalar FogSequentialForward.fog[97].server[0] congestionRatio 0
scalar FogSequentialForward.fog[97].server[0] totalJobs 9019
scalar FogSequentialForward.fog[97].server[0] droppedJobsQueue 4
scalar FogSequentialForward.fog[97].server[0] droppedJobsTimout 0
scalar FogSequentialForward.fog[97].server[0] droppedJobsSLA 5427
scalar FogSequentialForward.fog[97].server[0] droppedJobsTotal 5431
scalar FogSequentialForward.fog[98].dispatcher localJobs 9024
scalar FogSequentialForward.fog[98].dispatcher internalJobs 8955
scalar FogSequentialForward.fog[98].dispatcher externalJobs 2909
scalar FogSequentialForward.fog[98].dispatcher remoteJobs 2840
scalar FogSequentialForward.fog[98].dispatcher probeQueries 0
scalar FogSequentialForward.fog[98].dispatcher probeAnswers 0
scalar FogSequentialForward.fog[98].dispatcher droppedJobsSLA 0
scalar FogSequentialForward.fog[98].dispatcher jobs_class_1 11864
scalar FogSequentialForward.fog[98].dispatcher remoteJobs_class_1 2840
scalar FogSequentialForward.fog[98].dispatcher localJobs_class_1 9024
scalar FogSequentialForward.fog[98].server[0] rho 1
scalar FogSequentialForward.fog[98].server[0] congestionRatio 0
scalar FogSequentialForward.fog[98].server[0] totalJobs 9024
scalar FogSequentialForward.fog[98].server[0] droppedJobsQueue 1
scalar FogSequentialForward.fog[98].server[0] droppedJobsTimout 0
scalar FogSequentialForward.fog[98].server[0] droppedJobsSLA 5457
scalar FogSequentialForward.fog[98].server[0] droppedJobsTotal 5458
scalar FogSequentialForward.fog[99].dispatcher localJobs 8967
scalar FogSequentialForward.fog[99].dispatcher internalJobs 8976
scalar FogSequentialForward.fog[99].dispatcher externalJobs 2859
scalar FogSequentialForward.fog[99].dispatcher remoteJobs 2868
scalar FogSequentialForward.fog[99].dispatcher probeQueries 0
scalar FogSequentialForward.fog[99].dispatcher probeAnswers 0
scalar FogSequentialForward.fog[99].dispatcher droppedJobsSLA 0
scalar FogSequentialForward.fog[99].dispatcher jobs_class_1 11835
scalar FogSequentialForward.fog[99].dispatcher remoteJobs_class_1 2868
scalar FogSequentialForward.fog[99].dispatcher localJobs_class_1 8967
scalar FogSequentialForward.fog[99].server[0] rho 0.99964493513107
scalar FogSequentialForward.fog[99].server[0] congestionRatio 0
scalar FogSequentialForward.fog[99].server[0] totalJobs 8967
scalar FogSequentialForward.fog[99].server[0] droppedJobsQueue 2
scalar FogSequentialForward.fog[99].server[0] droppedJobsTimout 0
scalar FogSequentialForward.fog[99].server[0] droppedJobsSLA 5292
scalar FogSequentialForward.fog[99].server[0] droppedJobsTotal 5294
scalar FogSequentialForward.sink avg_responseTime_1 14.793018433343
scalar FogSequentialForward.sink p90_responseTime_1 1.580256354744
scalar FogSequentialForward.sink med_responseTime_1 1.580256354744
scalar FogSequentialForward.sink avg_delayTime_1 0
scalar FogSequentialForward.sink p90_delayTime_1 0
scalar FogSequentialForward.sink med_delayTime_1 0
scalar FogSequentialForward.sink avg_queuingTime_1 13.113002272533
scalar FogSequentialForward.sink p90_queuingTime_1 0
scalar FogSequentialForward.sink med_queuingTime_1 0
scalar FogSequentialForward.sink avg_serviceTime_1 1.6748032947019
scalar FogSequentialForward.sink p90_serviceTime_1 1.524261771508
scalar FogSequentialForward.sink med_serviceTime_1 1.524261771508
scalar FogSequentialForward.sink avg_balancerTime_1 0.0052128661073168
scalar FogSequentialForward.sink p90_balancerTime_1 0
scalar FogSequentialForward.sink med_balancerTime_1 0
scalar FogSequentialForward.sink avg_balancerCount_1 1.3121476710972
scalar FogSequentialForward.sink p90_balancerCount_1 1
scalar FogSequentialForward.sink med_balancerCount_1 1

