version 2
run Fog-mul_001-rho_08-thr_10-4-20190713-08:32:56-40213
attr configname Fog-mul_001-rho_08-thr_10
attr datetime 20190713-08:32:56
attr experiment Fog-mul_001-rho_08-thr_10
attr inifile FogSequentialForward.ini
attr iterationvars ""
attr iterationvarsf ""
attr measurement ""
attr network FogSequentialForward
attr processid 40213
attr repetition 4
attr replication #4
attr resultdir results
attr runnumber 4
attr seedset 4
param FogSequentialForward.proctimeMul 0.01
param FogSequentialForward.rho 0.8
param FogSequentialForward.fog[*].dispatcher.thr 10
param FogSequentialForward.nSources 100
param FogSequentialForward.rho 0.9
param FogSequentialForward.proctimeMul 1.0
param FogSequentialForward.source[*].appId 1
param FogSequentialForward.source[*].realTime true
param FogSequentialForward.source[*].multiHop true
param FogSequentialForward.fog[*].nServers 1
param FogSequentialForward.fog[*].dispatcher.fanOut 1
param FogSequentialForward.fog[*].server[*].timeSlice -1s
param FogSequentialForward.fog[*].server[*].timeout -1s
param FogSequentialForward.fog[*].server[*].capacity 20
param FogSequentialForward.fog[*].server[*].fifo true
param FogSequentialForward.fog[*].server[*].maxServiceTime -1s
param FogSequentialForward.fog[*].dispatcher.thr 1

scalar FogSequentialForward.fog[0].dispatcher localJobs 1284739
scalar FogSequentialForward.fog[0].dispatcher internalJobs 1442763
scalar FogSequentialForward.fog[0].dispatcher externalJobs 5462706
scalar FogSequentialForward.fog[0].dispatcher remoteJobs 5462211
scalar FogSequentialForward.fog[0].dispatcher probeQueries 0
scalar FogSequentialForward.fog[0].dispatcher probeAnswers 0
scalar FogSequentialForward.fog[0].dispatcher droppedJobsSLA 158519
scalar FogSequentialForward.fog[0].dispatcher jobs_class_1 6905469
scalar FogSequentialForward.fog[0].dispatcher remoteJobs_class_1 5462211
scalar FogSequentialForward.fog[0].dispatcher localJobs_class_1 1284739
scalar FogSequentialForward.fog[0].dispatcher droppedJobsSLA_class_1 158519
scalar FogSequentialForward.fog[0].server[0] rho 1
scalar FogSequentialForward.fog[0].server[0] congestionRatio 0
scalar FogSequentialForward.fog[0].server[0] totalJobs 1284739
scalar FogSequentialForward.fog[0].server[0] droppedJobsQueue 17241
scalar FogSequentialForward.fog[0].server[0] droppedJobsTimout 0
scalar FogSequentialForward.fog[0].server[0] droppedJobsSLA 783657
scalar FogSequentialForward.fog[0].server[0] droppedJobsTotal 800898
scalar FogSequentialForward.fog[1].dispatcher localJobs 1285406
scalar FogSequentialForward.fog[1].dispatcher internalJobs 1443662
scalar FogSequentialForward.fog[1].dispatcher externalJobs 5465292
scalar FogSequentialForward.fog[1].dispatcher remoteJobs 5465275
scalar FogSequentialForward.fog[1].dispatcher probeQueries 0
scalar FogSequentialForward.fog[1].dispatcher probeAnswers 0
scalar FogSequentialForward.fog[1].dispatcher droppedJobsSLA 158273
scalar FogSequentialForward.fog[1].dispatcher jobs_class_1 6908954
scalar FogSequentialForward.fog[1].dispatcher remoteJobs_class_1 5465275
scalar FogSequentialForward.fog[1].dispatcher localJobs_class_1 1285406
scalar FogSequentialForward.fog[1].dispatcher droppedJobsSLA_class_1 158273
scalar FogSequentialForward.fog[1].server[0] rho 1
scalar FogSequentialForward.fog[1].server[0] congestionRatio 0
scalar FogSequentialForward.fog[1].server[0] totalJobs 1285406
scalar FogSequentialForward.fog[1].server[0] droppedJobsQueue 17348
scalar FogSequentialForward.fog[1].server[0] droppedJobsTimout 0
scalar FogSequentialForward.fog[1].server[0] droppedJobsSLA 783407
scalar FogSequentialForward.fog[1].server[0] droppedJobsTotal 800755
scalar FogSequentialForward.fog[2].dispatcher localJobs 1284935
scalar FogSequentialForward.fog[2].dispatcher internalJobs 1442839
scalar FogSequentialForward.fog[2].dispatcher externalJobs 5464242
scalar FogSequentialForward.fog[2].dispatcher remoteJobs 5463964
scalar FogSequentialForward.fog[2].dispatcher probeQueries 0
scalar FogSequentialForward.fog[2].dispatcher probeAnswers 0
scalar FogSequentialForward.fog[2].dispatcher droppedJobsSLA 158182
scalar FogSequentialForward.fog[2].dispatcher jobs_class_1 6907081
scalar FogSequentialForward.fog[2].dispatcher remoteJobs_class_1 5463964
scalar FogSequentialForward.fog[2].dispatcher localJobs_class_1 1284935
scalar FogSequentialForward.fog[2].dispatcher droppedJobsSLA_class_1 158182
scalar FogSequentialForward.fog[2].server[0] rho 1
scalar FogSequentialForward.fog[2].server[0] congestionRatio 0
scalar FogSequentialForward.fog[2].server[0] totalJobs 1284935
scalar FogSequentialForward.fog[2].server[0] droppedJobsQueue 17257
scalar FogSequentialForward.fog[2].server[0] droppedJobsTimout 0
scalar FogSequentialForward.fog[2].server[0] droppedJobsSLA 783847
scalar FogSequentialForward.fog[2].server[0] droppedJobsTotal 801104
scalar FogSequentialForward.fog[3].dispatcher localJobs 1284949
scalar FogSequentialForward.fog[3].dispatcher internalJobs 1442727
scalar FogSequentialForward.fog[3].dispatcher externalJobs 5463477
scalar FogSequentialForward.fog[3].dispatcher remoteJobs 5463749
scalar FogSequentialForward.fog[3].dispatcher probeQueries 0
scalar FogSequentialForward.fog[3].dispatcher probeAnswers 0
scalar FogSequentialForward.fog[3].dispatcher droppedJobsSLA 157506
scalar FogSequentialForward.fog[3].dispatcher jobs_class_1 6906204
scalar FogSequentialForward.fog[3].dispatcher remoteJobs_class_1 5463749
scalar FogSequentialForward.fog[3].dispatcher localJobs_class_1 1284949
scalar FogSequentialForward.fog[3].dispatcher droppedJobsSLA_class_1 157506
scalar FogSequentialForward.fog[3].server[0] rho 0.99999982118607
scalar FogSequentialForward.fog[3].server[0] congestionRatio 0
scalar FogSequentialForward.fog[3].server[0] totalJobs 1284949
scalar FogSequentialForward.fog[3].server[0] droppedJobsQueue 17213
scalar FogSequentialForward.fog[3].server[0] droppedJobsTimout 0
scalar FogSequentialForward.fog[3].server[0] droppedJobsSLA 783767
scalar FogSequentialForward.fog[3].server[0] droppedJobsTotal 800980
scalar FogSequentialForward.fog[4].dispatcher localJobs 1284851
scalar FogSequentialForward.fog[4].dispatcher internalJobs 1442700
scalar FogSequentialForward.fog[4].dispatcher externalJobs 5463386
scalar FogSequentialForward.fog[4].dispatcher remoteJobs 5463385
scalar FogSequentialForward.fog[4].dispatcher probeQueries 0
scalar FogSequentialForward.fog[4].dispatcher probeAnswers 0
scalar FogSequentialForward.fog[4].dispatcher droppedJobsSLA 157850
scalar FogSequentialForward.fog[4].dispatcher jobs_class_1 6906086
scalar FogSequentialForward.fog[4].dispatcher remoteJobs_class_1 5463385
scalar FogSequentialForward.fog[4].dispatcher localJobs_class_1 1284851
scalar FogSequentialForward.fog[4].dispatcher droppedJobsSLA_class_1 157850
scalar FogSequentialForward.fog[4].server[0] rho 1
scalar FogSequentialForward.fog[4].server[0] congestionRatio 0
scalar FogSequentialForward.fog[4].server[0] totalJobs 1284851
scalar FogSequentialForward.fog[4].server[0] droppedJobsQueue 17382
scalar FogSequentialForward.fog[4].server[0] droppedJobsTimout 0
scalar FogSequentialForward.fog[4].server[0] droppedJobsSLA 783871
scalar FogSequentialForward.fog[4].server[0] droppedJobsTotal 801253
scalar FogSequentialForward.fog[5].dispatcher localJobs 1285785
scalar FogSequentialForward.fog[5].dispatcher internalJobs 1441348
scalar FogSequentialForward.fog[5].dispatcher externalJobs 5464592
scalar FogSequentialForward.fog[5].dispatcher remoteJobs 5462159
scalar FogSequentialForward.fog[5].dispatcher probeQueries 0
scalar FogSequentialForward.fog[5].dispatcher probeAnswers 0
scalar FogSequentialForward.fog[5].dispatcher droppedJobsSLA 157996
scalar FogSequentialForward.fog[5].dispatcher jobs_class_1 6905940
scalar FogSequentialForward.fog[5].dispatcher remoteJobs_class_1 5462159
scalar FogSequentialForward.fog[5].dispatcher localJobs_class_1 1285785
scalar FogSequentialForward.fog[5].dispatcher droppedJobsSLA_class_1 157996
scalar FogSequentialForward.fog[5].server[0] rho 0.99999994039536
scalar FogSequentialForward.fog[5].server[0] congestionRatio 0
scalar FogSequentialForward.fog[5].server[0] totalJobs 1285785
scalar FogSequentialForward.fog[5].server[0] droppedJobsQueue 17410
scalar FogSequentialForward.fog[5].server[0] droppedJobsTimout 0
scalar FogSequentialForward.fog[5].server[0] droppedJobsSLA 784067
scalar FogSequentialForward.fog[5].server[0] droppedJobsTotal 801477
scalar FogSequentialForward.fog[6].dispatcher localJobs 1284989
scalar FogSequentialForward.fog[6].dispatcher internalJobs 1442287
scalar FogSequentialForward.fog[6].dispatcher externalJobs 5461542
scalar FogSequentialForward.fog[6].dispatcher remoteJobs 5461121
scalar FogSequentialForward.fog[6].dispatcher probeQueries 0
scalar FogSequentialForward.fog[6].dispatcher probeAnswers 0
scalar FogSequentialForward.fog[6].dispatcher droppedJobsSLA 157719
scalar FogSequentialForward.fog[6].dispatcher jobs_class_1 6903829
scalar FogSequentialForward.fog[6].dispatcher remoteJobs_class_1 5461121
scalar FogSequentialForward.fog[6].dispatcher localJobs_class_1 1284989
scalar FogSequentialForward.fog[6].dispatcher droppedJobsSLA_class_1 157719
scalar FogSequentialForward.fog[6].server[0] rho 0.99999994039536
scalar FogSequentialForward.fog[6].server[0] congestionRatio 0
scalar FogSequentialForward.fog[6].server[0] totalJobs 1284989
scalar FogSequentialForward.fog[6].server[0] droppedJobsQueue 17474
scalar FogSequentialForward.fog[6].server[0] droppedJobsTimout 0
scalar FogSequentialForward.fog[6].server[0] droppedJobsSLA 783586
scalar FogSequentialForward.fog[6].server[0] droppedJobsTotal 801060
scalar FogSequentialForward.fog[7].dispatcher localJobs 1285778
scalar FogSequentialForward.fog[7].dispatcher internalJobs 1443582
scalar FogSequentialForward.fog[7].dispatcher externalJobs 5468081
scalar FogSequentialForward.fog[7].dispatcher remoteJobs 5468496
scalar FogSequentialForward.fog[7].dispatcher probeQueries 0
scalar FogSequentialForward.fog[7].dispatcher probeAnswers 0
scalar FogSequentialForward.fog[7].dispatcher droppedJobsSLA 157389
scalar FogSequentialForward.fog[7].dispatcher jobs_class_1 6911663
scalar FogSequentialForward.fog[7].dispatcher remoteJobs_class_1 5468496
scalar FogSequentialForward.fog[7].dispatcher localJobs_class_1 1285778
scalar FogSequentialForward.fog[7].dispatcher droppedJobsSLA_class_1 157389
scalar FogSequentialForward.fog[7].server[0] rho 1
scalar FogSequentialForward.fog[7].server[0] congestionRatio 0
scalar FogSequentialForward.fog[7].server[0] totalJobs 1285778
scalar FogSequentialForward.fog[7].server[0] droppedJobsQueue 17507
scalar FogSequentialForward.fog[7].server[0] droppedJobsTimout 0
scalar FogSequentialForward.fog[7].server[0] droppedJobsSLA 783930
scalar FogSequentialForward.fog[7].server[0] droppedJobsTotal 801437
scalar FogSequentialForward.fog[8].dispatcher localJobs 1285123
scalar FogSequentialForward.fog[8].dispatcher internalJobs 1443440
scalar FogSequentialForward.fog[8].dispatcher externalJobs 5463287
scalar FogSequentialForward.fog[8].dispatcher remoteJobs 5464407
scalar FogSequentialForward.fog[8].dispatcher probeQueries 0
scalar FogSequentialForward.fog[8].dispatcher probeAnswers 0
scalar FogSequentialForward.fog[8].dispatcher droppedJobsSLA 157197
scalar FogSequentialForward.fog[8].dispatcher jobs_class_1 6906727
scalar FogSequentialForward.fog[8].dispatcher remoteJobs_class_1 5464407
scalar FogSequentialForward.fog[8].dispatcher localJobs_class_1 1285123
scalar FogSequentialForward.fog[8].dispatcher droppedJobsSLA_class_1 157197
scalar FogSequentialForward.fog[8].server[0] rho 0.99999868869781
scalar FogSequentialForward.fog[8].server[0] congestionRatio 0
scalar FogSequentialForward.fog[8].server[0] totalJobs 1285123
scalar FogSequentialForward.fog[8].server[0] droppedJobsQueue 17280
scalar FogSequentialForward.fog[8].server[0] droppedJobsTimout 0
scalar FogSequentialForward.fog[8].server[0] droppedJobsSLA 783553
scalar FogSequentialForward.fog[8].server[0] droppedJobsTotal 800833
scalar FogSequentialForward.fog[9].dispatcher localJobs 1285444
scalar FogSequentialForward.fog[9].dispatcher internalJobs 1442753
scalar FogSequentialForward.fog[9].dispatcher externalJobs 5461241
scalar FogSequentialForward.fog[9].dispatcher remoteJobs 5461326
scalar FogSequentialForward.fog[9].dispatcher probeQueries 0
scalar FogSequentialForward.fog[9].dispatcher probeAnswers 0
scalar FogSequentialForward.fog[9].dispatcher droppedJobsSLA 157224
scalar FogSequentialForward.fog[9].dispatcher jobs_class_1 6903994
scalar FogSequentialForward.fog[9].dispatcher remoteJobs_class_1 5461326
scalar FogSequentialForward.fog[9].dispatcher localJobs_class_1 1285444
scalar FogSequentialForward.fog[9].dispatcher droppedJobsSLA_class_1 157224
scalar FogSequentialForward.fog[9].server[0] rho 1
scalar FogSequentialForward.fog[9].server[0] congestionRatio 0
scalar FogSequentialForward.fog[9].server[0] totalJobs 1285444
scalar FogSequentialForward.fog[9].server[0] droppedJobsQueue 17539
scalar FogSequentialForward.fog[9].server[0] droppedJobsTimout 0
scalar FogSequentialForward.fog[9].server[0] droppedJobsSLA 784043
scalar FogSequentialForward.fog[9].server[0] droppedJobsTotal 801582
scalar FogSequentialForward.fog[10].dispatcher localJobs 1285122
scalar FogSequentialForward.fog[10].dispatcher internalJobs 1442949
scalar FogSequentialForward.fog[10].dispatcher externalJobs 5465512
scalar FogSequentialForward.fog[10].dispatcher remoteJobs 5465455
scalar FogSequentialForward.fog[10].dispatcher probeQueries 0
scalar FogSequentialForward.fog[10].dispatcher probeAnswers 0
scalar FogSequentialForward.fog[10].dispatcher droppedJobsSLA 157884
scalar FogSequentialForward.fog[10].dispatcher jobs_class_1 6908461
scalar FogSequentialForward.fog[10].dispatcher remoteJobs_class_1 5465455
scalar FogSequentialForward.fog[10].dispatcher localJobs_class_1 1285122
scalar FogSequentialForward.fog[10].dispatcher droppedJobsSLA_class_1 157884
scalar FogSequentialForward.fog[10].server[0] rho 1
scalar FogSequentialForward.fog[10].server[0] congestionRatio 0
scalar FogSequentialForward.fog[10].server[0] totalJobs 1285122
scalar FogSequentialForward.fog[10].server[0] droppedJobsQueue 17408
scalar FogSequentialForward.fog[10].server[0] droppedJobsTimout 0
scalar FogSequentialForward.fog[10].server[0] droppedJobsSLA 783817
scalar FogSequentialForward.fog[10].server[0] droppedJobsTotal 801225
scalar FogSequentialForward.fog[11].dispatcher localJobs 1284603
scalar FogSequentialForward.fog[11].dispatcher internalJobs 1444721
scalar FogSequentialForward.fog[11].dispatcher externalJobs 5464623
scalar FogSequentialForward.fog[11].dispatcher remoteJobs 5466479
scalar FogSequentialForward.fog[11].dispatcher probeQueries 0
scalar FogSequentialForward.fog[11].dispatcher probeAnswers 0
scalar FogSequentialForward.fog[11].dispatcher droppedJobsSLA 158262
scalar FogSequentialForward.fog[11].dispatcher jobs_class_1 6909344
scalar FogSequentialForward.fog[11].dispatcher remoteJobs_class_1 5466479
scalar FogSequentialForward.fog[11].dispatcher localJobs_class_1 1284603
scalar FogSequentialForward.fog[11].dispatcher droppedJobsSLA_class_1 158262
scalar FogSequentialForward.fog[11].server[0] rho 0.99999994039536
scalar FogSequentialForward.fog[11].server[0] congestionRatio 0
scalar FogSequentialForward.fog[11].server[0] totalJobs 1284603
scalar FogSequentialForward.fog[11].server[0] droppedJobsQueue 17423
scalar FogSequentialForward.fog[11].server[0] droppedJobsTimout 0
scalar FogSequentialForward.fog[11].server[0] droppedJobsSLA 783558
scalar FogSequentialForward.fog[11].server[0] droppedJobsTotal 800981
scalar FogSequentialForward.fog[12].dispatcher localJobs 1285133
scalar FogSequentialForward.fog[12].dispatcher internalJobs 1442098
scalar FogSequentialForward.fog[12].dispatcher externalJobs 5468081
scalar FogSequentialForward.fog[12].dispatcher remoteJobs 5467688
scalar FogSequentialForward.fog[12].dispatcher probeQueries 0
scalar FogSequentialForward.fog[12].dispatcher probeAnswers 0
scalar FogSequentialForward.fog[12].dispatcher droppedJobsSLA 157358
scalar FogSequentialForward.fog[12].dispatcher jobs_class_1 6910179
scalar FogSequentialForward.fog[12].dispatcher remoteJobs_class_1 5467688
scalar FogSequentialForward.fog[12].dispatcher localJobs_class_1 1285133
scalar FogSequentialForward.fog[12].dispatcher droppedJobsSLA_class_1 157358
scalar FogSequentialForward.fog[12].server[0] rho 0.99999934434891
scalar FogSequentialForward.fog[12].server[0] congestionRatio 0
scalar FogSequentialForward.fog[12].server[0] totalJobs 1285133
scalar FogSequentialForward.fog[12].server[0] droppedJobsQueue 17447
scalar FogSequentialForward.fog[12].server[0] droppedJobsTimout 0
scalar FogSequentialForward.fog[12].server[0] droppedJobsSLA 783702
scalar FogSequentialForward.fog[12].server[0] droppedJobsTotal 801149
scalar FogSequentialForward.fog[13].dispatcher localJobs 1284101
scalar FogSequentialForward.fog[13].dispatcher internalJobs 1442694
scalar FogSequentialForward.fog[13].dispatcher externalJobs 5463964
scalar FogSequentialForward.fog[13].dispatcher remoteJobs 5464651
scalar FogSequentialForward.fog[13].dispatcher probeQueries 0
scalar FogSequentialForward.fog[13].dispatcher probeAnswers 0
scalar FogSequentialForward.fog[13].dispatcher droppedJobsSLA 157906
scalar FogSequentialForward.fog[13].dispatcher jobs_class_1 6906658
scalar FogSequentialForward.fog[13].dispatcher remoteJobs_class_1 5464651
scalar FogSequentialForward.fog[13].dispatcher localJobs_class_1 1284101
scalar FogSequentialForward.fog[13].dispatcher droppedJobsSLA_class_1 157906
scalar FogSequentialForward.fog[13].server[0] rho 1
scalar FogSequentialForward.fog[13].server[0] congestionRatio 0
scalar FogSequentialForward.fog[13].server[0] totalJobs 1284101
scalar FogSequentialForward.fog[13].server[0] droppedJobsQueue 17373
scalar FogSequentialForward.fog[13].server[0] droppedJobsTimout 0
scalar FogSequentialForward.fog[13].server[0] droppedJobsSLA 783725
scalar FogSequentialForward.fog[13].server[0] droppedJobsTotal 801098
scalar FogSequentialForward.fog[14].dispatcher localJobs 1285179
scalar FogSequentialForward.fog[14].dispatcher internalJobs 1441925
scalar FogSequentialForward.fog[14].dispatcher externalJobs 5464150
scalar FogSequentialForward.fog[14].dispatcher remoteJobs 5462922
scalar FogSequentialForward.fog[14].dispatcher probeQueries 0
scalar FogSequentialForward.fog[14].dispatcher probeAnswers 0
scalar FogSequentialForward.fog[14].dispatcher droppedJobsSLA 157974
scalar FogSequentialForward.fog[14].dispatcher jobs_class_1 6906075
scalar FogSequentialForward.fog[14].dispatcher remoteJobs_class_1 5462922
scalar FogSequentialForward.fog[14].dispatcher localJobs_class_1 1285179
scalar FogSequentialForward.fog[14].dispatcher droppedJobsSLA_class_1 157974
scalar FogSequentialForward.fog[14].server[0] rho 1
scalar FogSequentialForward.fog[14].server[0] congestionRatio 0
scalar FogSequentialForward.fog[14].server[0] totalJobs 1285179
scalar FogSequentialForward.fog[14].server[0] droppedJobsQueue 17392
scalar FogSequentialForward.fog[14].server[0] droppedJobsTimout 0
scalar FogSequentialForward.fog[14].server[0] droppedJobsSLA 783161
scalar FogSequentialForward.fog[14].server[0] droppedJobsTotal 800553
scalar FogSequentialForward.fog[15].dispatcher localJobs 1284874
scalar FogSequentialForward.fog[15].dispatcher internalJobs 1443226
scalar FogSequentialForward.fog[15].dispatcher externalJobs 5462993
scalar FogSequentialForward.fog[15].dispatcher remoteJobs 5463590
scalar FogSequentialForward.fog[15].dispatcher probeQueries 0
scalar FogSequentialForward.fog[15].dispatcher probeAnswers 0
scalar FogSequentialForward.fog[15].dispatcher droppedJobsSLA 157755
scalar FogSequentialForward.fog[15].dispatcher jobs_class_1 6906219
scalar FogSequentialForward.fog[15].dispatcher remoteJobs_class_1 5463590
scalar FogSequentialForward.fog[15].dispatcher localJobs_class_1 1284874
scalar FogSequentialForward.fog[15].dispatcher droppedJobsSLA_class_1 157755
scalar FogSequentialForward.fog[15].server[0] rho 1
scalar FogSequentialForward.fog[15].server[0] congestionRatio 0
scalar FogSequentialForward.fog[15].server[0] totalJobs 1284874
scalar FogSequentialForward.fog[15].server[0] droppedJobsQueue 17301
scalar FogSequentialForward.fog[15].server[0] droppedJobsTimout 0
scalar FogSequentialForward.fog[15].server[0] droppedJobsSLA 783814
scalar FogSequentialForward.fog[15].server[0] droppedJobsTotal 801115
scalar FogSequentialForward.fog[16].dispatcher localJobs 1284370
scalar FogSequentialForward.fog[16].dispatcher internalJobs 1441879
scalar FogSequentialForward.fog[16].dispatcher externalJobs 5462667
scalar FogSequentialForward.fog[16].dispatcher remoteJobs 5462777
scalar FogSequentialForward.fog[16].dispatcher probeQueries 0
scalar FogSequentialForward.fog[16].dispatcher probeAnswers 0
scalar FogSequentialForward.fog[16].dispatcher droppedJobsSLA 157399
scalar FogSequentialForward.fog[16].dispatcher jobs_class_1 6904546
scalar FogSequentialForward.fog[16].dispatcher remoteJobs_class_1 5462777
scalar FogSequentialForward.fog[16].dispatcher localJobs_class_1 1284370
scalar FogSequentialForward.fog[16].dispatcher droppedJobsSLA_class_1 157399
scalar FogSequentialForward.fog[16].server[0] rho 1
scalar FogSequentialForward.fog[16].server[0] congestionRatio 0
scalar FogSequentialForward.fog[16].server[0] totalJobs 1284370
scalar FogSequentialForward.fog[16].server[0] droppedJobsQueue 17177
scalar FogSequentialForward.fog[16].server[0] droppedJobsTimout 0
scalar FogSequentialForward.fog[16].server[0] droppedJobsSLA 783608
scalar FogSequentialForward.fog[16].server[0] droppedJobsTotal 800785
scalar FogSequentialForward.fog[17].dispatcher localJobs 1285879
scalar FogSequentialForward.fog[17].dispatcher internalJobs 1443153
scalar FogSequentialForward.fog[17].dispatcher externalJobs 5467816
scalar FogSequentialForward.fog[17].dispatcher remoteJobs 5466379
scalar FogSequentialForward.fog[17].dispatcher probeQueries 0
scalar FogSequentialForward.fog[17].dispatcher probeAnswers 0
scalar FogSequentialForward.fog[17].dispatcher droppedJobsSLA 158711
scalar FogSequentialForward.fog[17].dispatcher jobs_class_1 6910969
scalar FogSequentialForward.fog[17].dispatcher remoteJobs_class_1 5466379
scalar FogSequentialForward.fog[17].dispatcher localJobs_class_1 1285879
scalar FogSequentialForward.fog[17].dispatcher droppedJobsSLA_class_1 158711
scalar FogSequentialForward.fog[17].server[0] rho 1
scalar FogSequentialForward.fog[17].server[0] congestionRatio 0
scalar FogSequentialForward.fog[17].server[0] totalJobs 1285879
scalar FogSequentialForward.fog[17].server[0] droppedJobsQueue 17366
scalar FogSequentialForward.fog[17].server[0] droppedJobsTimout 0
scalar FogSequentialForward.fog[17].server[0] droppedJobsSLA 785006
scalar FogSequentialForward.fog[17].server[0] droppedJobsTotal 802372
scalar FogSequentialForward.fog[18].dispatcher localJobs 1285276
scalar FogSequentialForward.fog[18].dispatcher internalJobs 1443057
scalar FogSequentialForward.fog[18].dispatcher externalJobs 5465370
scalar FogSequentialForward.fog[18].dispatcher remoteJobs 5465439
scalar FogSequentialForward.fog[18].dispatcher probeQueries 0
scalar FogSequentialForward.fog[18].dispatcher probeAnswers 0
scalar FogSequentialForward.fog[18].dispatcher droppedJobsSLA 157712
scalar FogSequentialForward.fog[18].dispatcher jobs_class_1 6908427
scalar FogSequentialForward.fog[18].dispatcher remoteJobs_class_1 5465439
scalar FogSequentialForward.fog[18].dispatcher localJobs_class_1 1285276
scalar FogSequentialForward.fog[18].dispatcher droppedJobsSLA_class_1 157712
scalar FogSequentialForward.fog[18].server[0] rho 1
scalar FogSequentialForward.fog[18].server[0] congestionRatio 0
scalar FogSequentialForward.fog[18].server[0] totalJobs 1285276
scalar FogSequentialForward.fog[18].server[0] droppedJobsQueue 17325
scalar FogSequentialForward.fog[18].server[0] droppedJobsTimout 0
scalar FogSequentialForward.fog[18].server[0] droppedJobsSLA 784485
scalar FogSequentialForward.fog[18].server[0] droppedJobsTotal 801810
scalar FogSequentialForward.fog[19].dispatcher localJobs 1285219
scalar FogSequentialForward.fog[19].dispatcher internalJobs 1444657
scalar FogSequentialForward.fog[19].dispatcher externalJobs 5472466
scalar FogSequentialForward.fog[19].dispatcher remoteJobs 5473726
scalar FogSequentialForward.fog[19].dispatcher probeQueries 0
scalar FogSequentialForward.fog[19].dispatcher probeAnswers 0
scalar FogSequentialForward.fog[19].dispatcher droppedJobsSLA 158178
scalar FogSequentialForward.fog[19].dispatcher jobs_class_1 6917123
scalar FogSequentialForward.fog[19].dispatcher remoteJobs_class_1 5473726
scalar FogSequentialForward.fog[19].dispatcher localJobs_class_1 1285219
scalar FogSequentialForward.fog[19].dispatcher droppedJobsSLA_class_1 158178
scalar FogSequentialForward.fog[19].server[0] rho 0.99999970197678
scalar FogSequentialForward.fog[19].server[0] congestionRatio 0
scalar FogSequentialForward.fog[19].server[0] totalJobs 1285219
scalar FogSequentialForward.fog[19].server[0] droppedJobsQueue 17333
scalar FogSequentialForward.fog[19].server[0] droppedJobsTimout 0
scalar FogSequentialForward.fog[19].server[0] droppedJobsSLA 784426
scalar FogSequentialForward.fog[19].server[0] droppedJobsTotal 801759
scalar FogSequentialForward.fog[20].dispatcher localJobs 1284516
scalar FogSequentialForward.fog[20].dispatcher internalJobs 1441255
scalar FogSequentialForward.fog[20].dispatcher externalJobs 5461768
scalar FogSequentialForward.fog[20].dispatcher remoteJobs 5460987
scalar FogSequentialForward.fog[20].dispatcher probeQueries 0
scalar FogSequentialForward.fog[20].dispatcher probeAnswers 0
scalar FogSequentialForward.fog[20].dispatcher droppedJobsSLA 157520
scalar FogSequentialForward.fog[20].dispatcher jobs_class_1 6903023
scalar FogSequentialForward.fog[20].dispatcher remoteJobs_class_1 5460987
scalar FogSequentialForward.fog[20].dispatcher localJobs_class_1 1284516
scalar FogSequentialForward.fog[20].dispatcher droppedJobsSLA_class_1 157520
scalar FogSequentialForward.fog[20].server[0] rho 0.99999964237213
scalar FogSequentialForward.fog[20].server[0] congestionRatio 0
scalar FogSequentialForward.fog[20].server[0] totalJobs 1284516
scalar FogSequentialForward.fog[20].server[0] droppedJobsQueue 17252
scalar FogSequentialForward.fog[20].server[0] droppedJobsTimout 0
scalar FogSequentialForward.fog[20].server[0] droppedJobsSLA 782752
scalar FogSequentialForward.fog[20].server[0] droppedJobsTotal 800004
scalar FogSequentialForward.fog[21].dispatcher localJobs 1284726
scalar FogSequentialForward.fog[21].dispatcher internalJobs 1444010
scalar FogSequentialForward.fog[21].dispatcher externalJobs 5463791
scalar FogSequentialForward.fog[21].dispatcher remoteJobs 5465369
scalar FogSequentialForward.fog[21].dispatcher probeQueries 0
scalar FogSequentialForward.fog[21].dispatcher probeAnswers 0
scalar FogSequentialForward.fog[21].dispatcher droppedJobsSLA 157706
scalar FogSequentialForward.fog[21].dispatcher jobs_class_1 6907801
scalar FogSequentialForward.fog[21].dispatcher remoteJobs_class_1 5465369
scalar FogSequentialForward.fog[21].dispatcher localJobs_class_1 1284726
scalar FogSequentialForward.fog[21].dispatcher droppedJobsSLA_class_1 157706
scalar FogSequentialForward.fog[21].server[0] rho 1
scalar FogSequentialForward.fog[21].server[0] congestionRatio 0
scalar FogSequentialForward.fog[21].server[0] totalJobs 1284726
scalar FogSequentialForward.fog[21].server[0] droppedJobsQueue 17360
scalar FogSequentialForward.fog[21].server[0] droppedJobsTimout 0
scalar FogSequentialForward.fog[21].server[0] droppedJobsSLA 783525
scalar FogSequentialForward.fog[21].server[0] droppedJobsTotal 800885
scalar FogSequentialForward.fog[22].dispatcher localJobs 1285591
scalar FogSequentialForward.fog[22].dispatcher internalJobs 1442794
scalar FogSequentialForward.fog[22].dispatcher externalJobs 5464408
scalar FogSequentialForward.fog[22].dispatcher remoteJobs 5463522
scalar FogSequentialForward.fog[22].dispatcher probeQueries 0
scalar FogSequentialForward.fog[22].dispatcher probeAnswers 0
scalar FogSequentialForward.fog[22].dispatcher droppedJobsSLA 158089
scalar FogSequentialForward.fog[22].dispatcher jobs_class_1 6907202
scalar FogSequentialForward.fog[22].dispatcher remoteJobs_class_1 5463522
scalar FogSequentialForward.fog[22].dispatcher localJobs_class_1 1285591
scalar FogSequentialForward.fog[22].dispatcher droppedJobsSLA_class_1 158089
scalar FogSequentialForward.fog[22].server[0] rho 1
scalar FogSequentialForward.fog[22].server[0] congestionRatio 0
scalar FogSequentialForward.fog[22].server[0] totalJobs 1285591
scalar FogSequentialForward.fog[22].server[0] droppedJobsQueue 17307
scalar FogSequentialForward.fog[22].server[0] droppedJobsTimout 0
scalar FogSequentialForward.fog[22].server[0] droppedJobsSLA 783776
scalar FogSequentialForward.fog[22].server[0] droppedJobsTotal 801083
scalar FogSequentialForward.fog[23].dispatcher localJobs 1284904
scalar FogSequentialForward.fog[23].dispatcher internalJobs 1442738
scalar FogSequentialForward.fog[23].dispatcher externalJobs 5465884
scalar FogSequentialForward.fog[23].dispatcher remoteJobs 5466073
scalar FogSequentialForward.fog[23].dispatcher probeQueries 0
scalar FogSequentialForward.fog[23].dispatcher probeAnswers 0
scalar FogSequentialForward.fog[23].dispatcher droppedJobsSLA 157645
scalar FogSequentialForward.fog[23].dispatcher jobs_class_1 6908622
scalar FogSequentialForward.fog[23].dispatcher remoteJobs_class_1 5466073
scalar FogSequentialForward.fog[23].dispatcher localJobs_class_1 1284904
scalar FogSequentialForward.fog[23].dispatcher droppedJobsSLA_class_1 157645
scalar FogSequentialForward.fog[23].server[0] rho 1
scalar FogSequentialForward.fog[23].server[0] congestionRatio 0
scalar FogSequentialForward.fog[23].server[0] totalJobs 1284904
scalar FogSequentialForward.fog[23].server[0] droppedJobsQueue 17610
scalar FogSequentialForward.fog[23].server[0] droppedJobsTimout 0
scalar FogSequentialForward.fog[23].server[0] droppedJobsSLA 783472
scalar FogSequentialForward.fog[23].server[0] droppedJobsTotal 801082
scalar FogSequentialForward.fog[24].dispatcher localJobs 1284774
scalar FogSequentialForward.fog[24].dispatcher internalJobs 1442775
scalar FogSequentialForward.fog[24].dispatcher externalJobs 5462973
scalar FogSequentialForward.fog[24].dispatcher remoteJobs 5463072
scalar FogSequentialForward.fog[24].dispatcher probeQueries 0
scalar FogSequentialForward.fog[24].dispatcher probeAnswers 0
scalar FogSequentialForward.fog[24].dispatcher droppedJobsSLA 157902
scalar FogSequentialForward.fog[24].dispatcher jobs_class_1 6905748
scalar FogSequentialForward.fog[24].dispatcher remoteJobs_class_1 5463072
scalar FogSequentialForward.fog[24].dispatcher localJobs_class_1 1284774
scalar FogSequentialForward.fog[24].dispatcher droppedJobsSLA_class_1 157902
scalar FogSequentialForward.fog[24].server[0] rho 0.99999988079071
scalar FogSequentialForward.fog[24].server[0] congestionRatio 0
scalar FogSequentialForward.fog[24].server[0] totalJobs 1284774
scalar FogSequentialForward.fog[24].server[0] droppedJobsQueue 17347
scalar FogSequentialForward.fog[24].server[0] droppedJobsTimout 0
scalar FogSequentialForward.fog[24].server[0] droppedJobsSLA 782840
scalar FogSequentialForward.fog[24].server[0] droppedJobsTotal 800187
scalar FogSequentialForward.fog[25].dispatcher localJobs 1285642
scalar FogSequentialForward.fog[25].dispatcher internalJobs 1444560
scalar FogSequentialForward.fog[25].dispatcher externalJobs 5465654
scalar FogSequentialForward.fog[25].dispatcher remoteJobs 5466304
scalar FogSequentialForward.fog[25].dispatcher probeQueries 0
scalar FogSequentialForward.fog[25].dispatcher probeAnswers 0
scalar FogSequentialForward.fog[25].dispatcher droppedJobsSLA 158268
scalar FogSequentialForward.fog[25].dispatcher jobs_class_1 6910214
scalar FogSequentialForward.fog[25].dispatcher remoteJobs_class_1 5466304
scalar FogSequentialForward.fog[25].dispatcher localJobs_class_1 1285642
scalar FogSequentialForward.fog[25].dispatcher droppedJobsSLA_class_1 158268
scalar FogSequentialForward.fog[25].server[0] rho 1
scalar FogSequentialForward.fog[25].server[0] congestionRatio 0
scalar FogSequentialForward.fog[25].server[0] totalJobs 1285642
scalar FogSequentialForward.fog[25].server[0] droppedJobsQueue 17438
scalar FogSequentialForward.fog[25].server[0] droppedJobsTimout 0
scalar FogSequentialForward.fog[25].server[0] droppedJobsSLA 783935
scalar FogSequentialForward.fog[25].server[0] droppedJobsTotal 801373
scalar FogSequentialForward.fog[26].dispatcher localJobs 1285565
scalar FogSequentialForward.fog[26].dispatcher internalJobs 1443296
scalar FogSequentialForward.fog[26].dispatcher externalJobs 5465385
scalar FogSequentialForward.fog[26].dispatcher remoteJobs 5465575
scalar FogSequentialForward.fog[26].dispatcher probeQueries 0
scalar FogSequentialForward.fog[26].dispatcher probeAnswers 0
scalar FogSequentialForward.fog[26].dispatcher droppedJobsSLA 157541
scalar FogSequentialForward.fog[26].dispatcher jobs_class_1 6908681
scalar FogSequentialForward.fog[26].dispatcher remoteJobs_class_1 5465575
scalar FogSequentialForward.fog[26].dispatcher localJobs_class_1 1285565
scalar FogSequentialForward.fog[26].dispatcher droppedJobsSLA_class_1 157541
scalar FogSequentialForward.fog[26].server[0] rho 1
scalar FogSequentialForward.fog[26].server[0] congestionRatio 0
scalar FogSequentialForward.fog[26].server[0] totalJobs 1285565
scalar FogSequentialForward.fog[26].server[0] droppedJobsQueue 17314
scalar FogSequentialForward.fog[26].server[0] droppedJobsTimout 0
scalar FogSequentialForward.fog[26].server[0] droppedJobsSLA 784512
scalar FogSequentialForward.fog[26].server[0] droppedJobsTotal 801826
scalar FogSequentialForward.fog[27].dispatcher localJobs 1284697
scalar FogSequentialForward.fog[27].dispatcher internalJobs 1444268
scalar FogSequentialForward.fog[27].dispatcher externalJobs 5461039
scalar FogSequentialForward.fog[27].dispatcher remoteJobs 5462876
scalar FogSequentialForward.fog[27].dispatcher probeQueries 0
scalar FogSequentialForward.fog[27].dispatcher probeAnswers 0
scalar FogSequentialForward.fog[27].dispatcher droppedJobsSLA 157734
scalar FogSequentialForward.fog[27].dispatcher jobs_class_1 6905307
scalar FogSequentialForward.fog[27].dispatcher remoteJobs_class_1 5462876
scalar FogSequentialForward.fog[27].dispatcher localJobs_class_1 1284697
scalar FogSequentialForward.fog[27].dispatcher droppedJobsSLA_class_1 157734
scalar FogSequentialForward.fog[27].server[0] rho 1
scalar FogSequentialForward.fog[27].server[0] congestionRatio 0
scalar FogSequentialForward.fog[27].server[0] totalJobs 1284697
scalar FogSequentialForward.fog[27].server[0] droppedJobsQueue 17434
scalar FogSequentialForward.fog[27].server[0] droppedJobsTimout 0
scalar FogSequentialForward.fog[27].server[0] droppedJobsSLA 783333
scalar FogSequentialForward.fog[27].server[0] droppedJobsTotal 800767
scalar FogSequentialForward.fog[28].dispatcher localJobs 1285417
scalar FogSequentialForward.fog[28].dispatcher internalJobs 1442007
scalar FogSequentialForward.fog[28].dispatcher externalJobs 5464284
scalar FogSequentialForward.fog[28].dispatcher remoteJobs 5463333
scalar FogSequentialForward.fog[28].dispatcher probeQueries 0
scalar FogSequentialForward.fog[28].dispatcher probeAnswers 0
scalar FogSequentialForward.fog[28].dispatcher droppedJobsSLA 157541
scalar FogSequentialForward.fog[28].dispatcher jobs_class_1 6906291
scalar FogSequentialForward.fog[28].dispatcher remoteJobs_class_1 5463333
scalar FogSequentialForward.fog[28].dispatcher localJobs_class_1 1285417
scalar FogSequentialForward.fog[28].dispatcher droppedJobsSLA_class_1 157541
scalar FogSequentialForward.fog[28].server[0] rho 1
scalar FogSequentialForward.fog[28].server[0] congestionRatio 0
scalar FogSequentialForward.fog[28].server[0] totalJobs 1285417
scalar FogSequentialForward.fog[28].server[0] droppedJobsQueue 17386
scalar FogSequentialForward.fog[28].server[0] droppedJobsTimout 0
scalar FogSequentialForward.fog[28].server[0] droppedJobsSLA 783949
scalar FogSequentialForward.fog[28].server[0] droppedJobsTotal 801335
scalar FogSequentialForward.fog[29].dispatcher localJobs 1285381
scalar FogSequentialForward.fog[29].dispatcher internalJobs 1442688
scalar FogSequentialForward.fog[29].dispatcher externalJobs 5465516
scalar FogSequentialForward.fog[29].dispatcher remoteJobs 5464632
scalar FogSequentialForward.fog[29].dispatcher probeQueries 0
scalar FogSequentialForward.fog[29].dispatcher probeAnswers 0
scalar FogSequentialForward.fog[29].dispatcher droppedJobsSLA 158191
scalar FogSequentialForward.fog[29].dispatcher jobs_class_1 6908204
scalar FogSequentialForward.fog[29].dispatcher remoteJobs_class_1 5464632
scalar FogSequentialForward.fog[29].dispatcher localJobs_class_1 1285381
scalar FogSequentialForward.fog[29].dispatcher droppedJobsSLA_class_1 158191
scalar FogSequentialForward.fog[29].server[0] rho 1
scalar FogSequentialForward.fog[29].server[0] congestionRatio 0
scalar FogSequentialForward.fog[29].server[0] totalJobs 1285381
scalar FogSequentialForward.fog[29].server[0] droppedJobsQueue 17320
scalar FogSequentialForward.fog[29].server[0] droppedJobsTimout 0
scalar FogSequentialForward.fog[29].server[0] droppedJobsSLA 784201
scalar FogSequentialForward.fog[29].server[0] droppedJobsTotal 801521
scalar FogSequentialForward.fog[30].dispatcher localJobs 1284387
scalar FogSequentialForward.fog[30].dispatcher internalJobs 1445179
scalar FogSequentialForward.fog[30].dispatcher externalJobs 5461087
scalar FogSequentialForward.fog[30].dispatcher remoteJobs 5464053
scalar FogSequentialForward.fog[30].dispatcher probeQueries 0
scalar FogSequentialForward.fog[30].dispatcher probeAnswers 0
scalar FogSequentialForward.fog[30].dispatcher droppedJobsSLA 157826
scalar FogSequentialForward.fog[30].dispatcher jobs_class_1 6906266
scalar FogSequentialForward.fog[30].dispatcher remoteJobs_class_1 5464053
scalar FogSequentialForward.fog[30].dispatcher localJobs_class_1 1284387
scalar FogSequentialForward.fog[30].dispatcher droppedJobsSLA_class_1 157826
scalar FogSequentialForward.fog[30].server[0] rho 1
scalar FogSequentialForward.fog[30].server[0] congestionRatio 0
scalar FogSequentialForward.fog[30].server[0] totalJobs 1284387
scalar FogSequentialForward.fog[30].server[0] droppedJobsQueue 17282
scalar FogSequentialForward.fog[30].server[0] droppedJobsTimout 0
scalar FogSequentialForward.fog[30].server[0] droppedJobsSLA 782788
scalar FogSequentialForward.fog[30].server[0] droppedJobsTotal 800070
scalar FogSequentialForward.fog[31].dispatcher localJobs 1285884
scalar FogSequentialForward.fog[31].dispatcher internalJobs 1442973
scalar FogSequentialForward.fog[31].dispatcher externalJobs 5465883
scalar FogSequentialForward.fog[31].dispatcher remoteJobs 5464595
scalar FogSequentialForward.fog[31].dispatcher probeQueries 0
scalar FogSequentialForward.fog[31].dispatcher probeAnswers 0
scalar FogSequentialForward.fog[31].dispatcher droppedJobsSLA 158377
scalar FogSequentialForward.fog[31].dispatcher jobs_class_1 6908856
scalar FogSequentialForward.fog[31].dispatcher remoteJobs_class_1 5464595
scalar FogSequentialForward.fog[31].dispatcher localJobs_class_1 1285884
scalar FogSequentialForward.fog[31].dispatcher droppedJobsSLA_class_1 158377
scalar FogSequentialForward.fog[31].server[0] rho 1
scalar FogSequentialForward.fog[31].server[0] congestionRatio 0
scalar FogSequentialForward.fog[31].server[0] totalJobs 1285884
scalar FogSequentialForward.fog[31].server[0] droppedJobsQueue 17428
scalar FogSequentialForward.fog[31].server[0] droppedJobsTimout 0
scalar FogSequentialForward.fog[31].server[0] droppedJobsSLA 784351
scalar FogSequentialForward.fog[31].server[0] droppedJobsTotal 801779
scalar FogSequentialForward.fog[32].dispatcher localJobs 1285579
scalar FogSequentialForward.fog[32].dispatcher internalJobs 1444598
scalar FogSequentialForward.fog[32].dispatcher externalJobs 5464823
scalar FogSequentialForward.fog[32].dispatcher remoteJobs 5466207
scalar FogSequentialForward.fog[32].dispatcher probeQueries 0
scalar FogSequentialForward.fog[32].dispatcher probeAnswers 0
scalar FogSequentialForward.fog[32].dispatcher droppedJobsSLA 157635
scalar FogSequentialForward.fog[32].dispatcher jobs_class_1 6909421
scalar FogSequentialForward.fog[32].dispatcher remoteJobs_class_1 5466207
scalar FogSequentialForward.fog[32].dispatcher localJobs_class_1 1285579
scalar FogSequentialForward.fog[32].dispatcher droppedJobsSLA_class_1 157635
scalar FogSequentialForward.fog[32].server[0] rho 1
scalar FogSequentialForward.fog[32].server[0] congestionRatio 0
scalar FogSequentialForward.fog[32].server[0] totalJobs 1285579
scalar FogSequentialForward.fog[32].server[0] droppedJobsQueue 17381
scalar FogSequentialForward.fog[32].server[0] droppedJobsTimout 0
scalar FogSequentialForward.fog[32].server[0] droppedJobsSLA 783881
scalar FogSequentialForward.fog[32].server[0] droppedJobsTotal 801262
scalar FogSequentialForward.fog[33].dispatcher localJobs 1285140
scalar FogSequentialForward.fog[33].dispatcher internalJobs 1443453
scalar FogSequentialForward.fog[33].dispatcher externalJobs 5464395
scalar FogSequentialForward.fog[33].dispatcher remoteJobs 5465378
scalar FogSequentialForward.fog[33].dispatcher probeQueries 0
scalar FogSequentialForward.fog[33].dispatcher probeAnswers 0
scalar FogSequentialForward.fog[33].dispatcher droppedJobsSLA 157330
scalar FogSequentialForward.fog[33].dispatcher jobs_class_1 6907848
scalar FogSequentialForward.fog[33].dispatcher remoteJobs_class_1 5465378
scalar FogSequentialForward.fog[33].dispatcher localJobs_class_1 1285140
scalar FogSequentialForward.fog[33].dispatcher droppedJobsSLA_class_1 157330
scalar FogSequentialForward.fog[33].server[0] rho 0.99999970197678
scalar FogSequentialForward.fog[33].server[0] congestionRatio 0
scalar FogSequentialForward.fog[33].server[0] totalJobs 1285140
scalar FogSequentialForward.fog[33].server[0] droppedJobsQueue 17309
scalar FogSequentialForward.fog[33].server[0] droppedJobsTimout 0
scalar FogSequentialForward.fog[33].server[0] droppedJobsSLA 783687
scalar FogSequentialForward.fog[33].server[0] droppedJobsTotal 800996
scalar FogSequentialForward.fog[34].dispatcher localJobs 1285034
scalar FogSequentialForward.fog[34].dispatcher internalJobs 1443362
scalar FogSequentialForward.fog[34].dispatcher externalJobs 5463480
scalar FogSequentialForward.fog[34].dispatcher remoteJobs 5464132
scalar FogSequentialForward.fog[34].dispatcher probeQueries 0
scalar FogSequentialForward.fog[34].dispatcher probeAnswers 0
scalar FogSequentialForward.fog[34].dispatcher droppedJobsSLA 157676
scalar FogSequentialForward.fog[34].dispatcher jobs_class_1 6906842
scalar FogSequentialForward.fog[34].dispatcher remoteJobs_class_1 5464132
scalar FogSequentialForward.fog[34].dispatcher localJobs_class_1 1285034
scalar FogSequentialForward.fog[34].dispatcher droppedJobsSLA_class_1 157676
scalar FogSequentialForward.fog[34].server[0] rho 1
scalar FogSequentialForward.fog[34].server[0] congestionRatio 0
scalar FogSequentialForward.fog[34].server[0] totalJobs 1285034
scalar FogSequentialForward.fog[34].server[0] droppedJobsQueue 17201
scalar FogSequentialForward.fog[34].server[0] droppedJobsTimout 0
scalar FogSequentialForward.fog[34].server[0] droppedJobsSLA 783724
scalar FogSequentialForward.fog[34].server[0] droppedJobsTotal 800925
scalar FogSequentialForward.fog[35].dispatcher localJobs 1285083
scalar FogSequentialForward.fog[35].dispatcher internalJobs 1438916
scalar FogSequentialForward.fog[35].dispatcher externalJobs 5468085
scalar FogSequentialForward.fog[35].dispatcher remoteJobs 5463605
scalar FogSequentialForward.fog[35].dispatcher probeQueries 0
scalar FogSequentialForward.fog[35].dispatcher probeAnswers 0
scalar FogSequentialForward.fog[35].dispatcher droppedJobsSLA 158313
scalar FogSequentialForward.fog[35].dispatcher jobs_class_1 6907001
scalar FogSequentialForward.fog[35].dispatcher remoteJobs_class_1 5463605
scalar FogSequentialForward.fog[35].dispatcher localJobs_class_1 1285083
scalar FogSequentialForward.fog[35].dispatcher droppedJobsSLA_class_1 158313
scalar FogSequentialForward.fog[35].server[0] rho 1
scalar FogSequentialForward.fog[35].server[0] congestionRatio 0
scalar FogSequentialForward.fog[35].server[0] totalJobs 1285083
scalar FogSequentialForward.fog[35].server[0] droppedJobsQueue 17383
scalar FogSequentialForward.fog[35].server[0] droppedJobsTimout 0
scalar FogSequentialForward.fog[35].server[0] droppedJobsSLA 784383
scalar FogSequentialForward.fog[35].server[0] droppedJobsTotal 801766
scalar FogSequentialForward.fog[36].dispatcher localJobs 1284905
scalar FogSequentialForward.fog[36].dispatcher internalJobs 1444663
scalar FogSequentialForward.fog[36].dispatcher externalJobs 5465244
scalar FogSequentialForward.fog[36].dispatcher remoteJobs 5467529
scalar FogSequentialForward.fog[36].dispatcher probeQueries 0
scalar FogSequentialForward.fog[36].dispatcher probeAnswers 0
scalar FogSequentialForward.fog[36].dispatcher droppedJobsSLA 157473
scalar FogSequentialForward.fog[36].dispatcher jobs_class_1 6909907
scalar FogSequentialForward.fog[36].dispatcher remoteJobs_class_1 5467529
scalar FogSequentialForward.fog[36].dispatcher localJobs_class_1 1284905
scalar FogSequentialForward.fog[36].dispatcher droppedJobsSLA_class_1 157473
scalar FogSequentialForward.fog[36].server[0] rho 1
scalar FogSequentialForward.fog[36].server[0] congestionRatio 0
scalar FogSequentialForward.fog[36].server[0] totalJobs 1284905
scalar FogSequentialForward.fog[36].server[0] droppedJobsQueue 17327
scalar FogSequentialForward.fog[36].server[0] droppedJobsTimout 0
scalar FogSequentialForward.fog[36].server[0] droppedJobsSLA 783681
scalar FogSequentialForward.fog[36].server[0] droppedJobsTotal 801008
scalar FogSequentialForward.fog[37].dispatcher localJobs 1284631
scalar FogSequentialForward.fog[37].dispatcher internalJobs 1443211
scalar FogSequentialForward.fog[37].dispatcher externalJobs 5460594
scalar FogSequentialForward.fog[37].dispatcher remoteJobs 5460719
scalar FogSequentialForward.fog[37].dispatcher probeQueries 0
scalar FogSequentialForward.fog[37].dispatcher probeAnswers 0
scalar FogSequentialForward.fog[37].dispatcher droppedJobsSLA 158455
scalar FogSequentialForward.fog[37].dispatcher jobs_class_1 6903805
scalar FogSequentialForward.fog[37].dispatcher remoteJobs_class_1 5460719
scalar FogSequentialForward.fog[37].dispatcher localJobs_class_1 1284631
scalar FogSequentialForward.fog[37].dispatcher droppedJobsSLA_class_1 158455
scalar FogSequentialForward.fog[37].server[0] rho 0.99999958276749
scalar FogSequentialForward.fog[37].server[0] congestionRatio 0
scalar FogSequentialForward.fog[37].server[0] totalJobs 1284631
scalar FogSequentialForward.fog[37].server[0] droppedJobsQueue 17291
scalar FogSequentialForward.fog[37].server[0] droppedJobsTimout 0
scalar FogSequentialForward.fog[37].server[0] droppedJobsSLA 783481
scalar FogSequentialForward.fog[37].server[0] droppedJobsTotal 800772
scalar FogSequentialForward.fog[38].dispatcher localJobs 1285957
scalar FogSequentialForward.fog[38].dispatcher internalJobs 1441933
scalar FogSequentialForward.fog[38].dispatcher externalJobs 5464199
scalar FogSequentialForward.fog[38].dispatcher remoteJobs 5462268
scalar FogSequentialForward.fog[38].dispatcher probeQueries 0
scalar FogSequentialForward.fog[38].dispatcher probeAnswers 0
scalar FogSequentialForward.fog[38].dispatcher droppedJobsSLA 157907
scalar FogSequentialForward.fog[38].dispatcher jobs_class_1 6906132
scalar FogSequentialForward.fog[38].dispatcher remoteJobs_class_1 5462268
scalar FogSequentialForward.fog[38].dispatcher localJobs_class_1 1285957
scalar FogSequentialForward.fog[38].dispatcher droppedJobsSLA_class_1 157907
scalar FogSequentialForward.fog[38].server[0] rho 1
scalar FogSequentialForward.fog[38].server[0] congestionRatio 0
scalar FogSequentialForward.fog[38].server[0] totalJobs 1285957
scalar FogSequentialForward.fog[38].server[0] droppedJobsQueue 17599
scalar FogSequentialForward.fog[38].server[0] droppedJobsTimout 0
scalar FogSequentialForward.fog[38].server[0] droppedJobsSLA 784170
scalar FogSequentialForward.fog[38].server[0] droppedJobsTotal 801769
scalar FogSequentialForward.fog[39].dispatcher localJobs 1285725
scalar FogSequentialForward.fog[39].dispatcher internalJobs 1442415
scalar FogSequentialForward.fog[39].dispatcher externalJobs 5466925
scalar FogSequentialForward.fog[39].dispatcher remoteJobs 5465447
scalar FogSequentialForward.fog[39].dispatcher probeQueries 0
scalar FogSequentialForward.fog[39].dispatcher probeAnswers 0
scalar FogSequentialForward.fog[39].dispatcher droppedJobsSLA 158168
scalar FogSequentialForward.fog[39].dispatcher jobs_class_1 6909340
scalar FogSequentialForward.fog[39].dispatcher remoteJobs_class_1 5465447
scalar FogSequentialForward.fog[39].dispatcher localJobs_class_1 1285725
scalar FogSequentialForward.fog[39].dispatcher droppedJobsSLA_class_1 158168
scalar FogSequentialForward.fog[39].server[0] rho 1
scalar FogSequentialForward.fog[39].server[0] congestionRatio 0
scalar FogSequentialForward.fog[39].server[0] totalJobs 1285725
scalar FogSequentialForward.fog[39].server[0] droppedJobsQueue 17491
scalar FogSequentialForward.fog[39].server[0] droppedJobsTimout 0
scalar FogSequentialForward.fog[39].server[0] droppedJobsSLA 783229
scalar FogSequentialForward.fog[39].server[0] droppedJobsTotal 800720
scalar FogSequentialForward.fog[40].dispatcher localJobs 1285537
scalar FogSequentialForward.fog[40].dispatcher internalJobs 1443070
scalar FogSequentialForward.fog[40].dispatcher externalJobs 5464783
scalar FogSequentialForward.fog[40].dispatcher remoteJobs 5464537
scalar FogSequentialForward.fog[40].dispatcher probeQueries 0
scalar FogSequentialForward.fog[40].dispatcher probeAnswers 0
scalar FogSequentialForward.fog[40].dispatcher droppedJobsSLA 157779
scalar FogSequentialForward.fog[40].dispatcher jobs_class_1 6907853
scalar FogSequentialForward.fog[40].dispatcher remoteJobs_class_1 5464537
scalar FogSequentialForward.fog[40].dispatcher localJobs_class_1 1285537
scalar FogSequentialForward.fog[40].dispatcher droppedJobsSLA_class_1 157779
scalar FogSequentialForward.fog[40].server[0] rho 1
scalar FogSequentialForward.fog[40].server[0] congestionRatio 0
scalar FogSequentialForward.fog[40].server[0] totalJobs 1285537
scalar FogSequentialForward.fog[40].server[0] droppedJobsQueue 17451
scalar FogSequentialForward.fog[40].server[0] droppedJobsTimout 0
scalar FogSequentialForward.fog[40].server[0] droppedJobsSLA 784290
scalar FogSequentialForward.fog[40].server[0] droppedJobsTotal 801741
scalar FogSequentialForward.fog[41].dispatcher localJobs 1285327
scalar FogSequentialForward.fog[41].dispatcher internalJobs 1441853
scalar FogSequentialForward.fog[41].dispatcher externalJobs 5465104
scalar FogSequentialForward.fog[41].dispatcher remoteJobs 5463979
scalar FogSequentialForward.fog[41].dispatcher probeQueries 0
scalar FogSequentialForward.fog[41].dispatcher probeAnswers 0
scalar FogSequentialForward.fog[41].dispatcher droppedJobsSLA 157651
scalar FogSequentialForward.fog[41].dispatcher jobs_class_1 6906957
scalar FogSequentialForward.fog[41].dispatcher remoteJobs_class_1 5463979
scalar FogSequentialForward.fog[41].dispatcher localJobs_class_1 1285327
scalar FogSequentialForward.fog[41].dispatcher droppedJobsSLA_class_1 157651
scalar FogSequentialForward.fog[41].server[0] rho 1
scalar FogSequentialForward.fog[41].server[0] congestionRatio 0
scalar FogSequentialForward.fog[41].server[0] totalJobs 1285327
scalar FogSequentialForward.fog[41].server[0] droppedJobsQueue 17440
scalar FogSequentialForward.fog[41].server[0] droppedJobsTimout 0
scalar FogSequentialForward.fog[41].server[0] droppedJobsSLA 783646
scalar FogSequentialForward.fog[41].server[0] droppedJobsTotal 801086
scalar FogSequentialForward.fog[42].dispatcher localJobs 1284633
scalar FogSequentialForward.fog[42].dispatcher internalJobs 1443174
scalar FogSequentialForward.fog[42].dispatcher externalJobs 5465532
scalar FogSequentialForward.fog[42].dispatcher remoteJobs 5466590
scalar FogSequentialForward.fog[42].dispatcher probeQueries 0
scalar FogSequentialForward.fog[42].dispatcher probeAnswers 0
scalar FogSequentialForward.fog[42].dispatcher droppedJobsSLA 157483
scalar FogSequentialForward.fog[42].dispatcher jobs_class_1 6908706
scalar FogSequentialForward.fog[42].dispatcher remoteJobs_class_1 5466590
scalar FogSequentialForward.fog[42].dispatcher localJobs_class_1 1284633
scalar FogSequentialForward.fog[42].dispatcher droppedJobsSLA_class_1 157483
scalar FogSequentialForward.fog[42].server[0] rho 1
scalar FogSequentialForward.fog[42].server[0] congestionRatio 0
scalar FogSequentialForward.fog[42].server[0] totalJobs 1284633
scalar FogSequentialForward.fog[42].server[0] droppedJobsQueue 17272
scalar FogSequentialForward.fog[42].server[0] droppedJobsTimout 0
scalar FogSequentialForward.fog[42].server[0] droppedJobsSLA 783519
scalar FogSequentialForward.fog[42].server[0] droppedJobsTotal 800791
scalar FogSequentialForward.fog[43].dispatcher localJobs 1285086
scalar FogSequentialForward.fog[43].dispatcher internalJobs 1442692
scalar FogSequentialForward.fog[43].dispatcher externalJobs 5464033
scalar FogSequentialForward.fog[43].dispatcher remoteJobs 5464259
scalar FogSequentialForward.fog[43].dispatcher probeQueries 0
scalar FogSequentialForward.fog[43].dispatcher probeAnswers 0
scalar FogSequentialForward.fog[43].dispatcher droppedJobsSLA 157380
scalar FogSequentialForward.fog[43].dispatcher jobs_class_1 6906725
scalar FogSequentialForward.fog[43].dispatcher remoteJobs_class_1 5464259
scalar FogSequentialForward.fog[43].dispatcher localJobs_class_1 1285086
scalar FogSequentialForward.fog[43].dispatcher droppedJobsSLA_class_1 157380
scalar FogSequentialForward.fog[43].server[0] rho 1
scalar FogSequentialForward.fog[43].server[0] congestionRatio 0
scalar FogSequentialForward.fog[43].server[0] totalJobs 1285086
scalar FogSequentialForward.fog[43].server[0] droppedJobsQueue 17303
scalar FogSequentialForward.fog[43].server[0] droppedJobsTimout 0
scalar FogSequentialForward.fog[43].server[0] droppedJobsSLA 784321
scalar FogSequentialForward.fog[43].server[0] droppedJobsTotal 801624
scalar FogSequentialForward.fog[44].dispatcher localJobs 1285494
scalar FogSequentialForward.fog[44].dispatcher internalJobs 1441747
scalar FogSequentialForward.fog[44].dispatcher externalJobs 5464601
scalar FogSequentialForward.fog[44].dispatcher remoteJobs 5463230
scalar FogSequentialForward.fog[44].dispatcher probeQueries 0
scalar FogSequentialForward.fog[44].dispatcher probeAnswers 0
scalar FogSequentialForward.fog[44].dispatcher droppedJobsSLA 157624
scalar FogSequentialForward.fog[44].dispatcher jobs_class_1 6906348
scalar FogSequentialForward.fog[44].dispatcher remoteJobs_class_1 5463230
scalar FogSequentialForward.fog[44].dispatcher localJobs_class_1 1285494
scalar FogSequentialForward.fog[44].dispatcher droppedJobsSLA_class_1 157624
scalar FogSequentialForward.fog[44].server[0] rho 1
scalar FogSequentialForward.fog[44].server[0] congestionRatio 0
scalar FogSequentialForward.fog[44].server[0] totalJobs 1285494
scalar FogSequentialForward.fog[44].server[0] droppedJobsQueue 17309
scalar FogSequentialForward.fog[44].server[0] droppedJobsTimout 0
scalar FogSequentialForward.fog[44].server[0] droppedJobsSLA 783610
scalar FogSequentialForward.fog[44].server[0] droppedJobsTotal 800919
scalar FogSequentialForward.fog[45].dispatcher localJobs 1284899
scalar FogSequentialForward.fog[45].dispatcher internalJobs 1443191
scalar FogSequentialForward.fog[45].dispatcher externalJobs 5463743
scalar FogSequentialForward.fog[45].dispatcher remoteJobs 5464695
scalar FogSequentialForward.fog[45].dispatcher probeQueries 0
scalar FogSequentialForward.fog[45].dispatcher probeAnswers 0
scalar FogSequentialForward.fog[45].dispatcher droppedJobsSLA 157340
scalar FogSequentialForward.fog[45].dispatcher jobs_class_1 6906934
scalar FogSequentialForward.fog[45].dispatcher remoteJobs_class_1 5464695
scalar FogSequentialForward.fog[45].dispatcher localJobs_class_1 1284899
scalar FogSequentialForward.fog[45].dispatcher droppedJobsSLA_class_1 157340
scalar FogSequentialForward.fog[45].server[0] rho 1
scalar FogSequentialForward.fog[45].server[0] congestionRatio 0
scalar FogSequentialForward.fog[45].server[0] totalJobs 1284899
scalar FogSequentialForward.fog[45].server[0] droppedJobsQueue 17242
scalar FogSequentialForward.fog[45].server[0] droppedJobsTimout 0
scalar FogSequentialForward.fog[45].server[0] droppedJobsSLA 783041
scalar FogSequentialForward.fog[45].server[0] droppedJobsTotal 800283
scalar FogSequentialForward.fog[46].dispatcher localJobs 1284957
scalar FogSequentialForward.fog[46].dispatcher internalJobs 1441589
scalar FogSequentialForward.fog[46].dispatcher externalJobs 5463860
scalar FogSequentialForward.fog[46].dispatcher remoteJobs 5462575
scalar FogSequentialForward.fog[46].dispatcher probeQueries 0
scalar FogSequentialForward.fog[46].dispatcher probeAnswers 0
scalar FogSequentialForward.fog[46].dispatcher droppedJobsSLA 157917
scalar FogSequentialForward.fog[46].dispatcher jobs_class_1 6905449
scalar FogSequentialForward.fog[46].dispatcher remoteJobs_class_1 5462575
scalar FogSequentialForward.fog[46].dispatcher localJobs_class_1 1284957
scalar FogSequentialForward.fog[46].dispatcher droppedJobsSLA_class_1 157917
scalar FogSequentialForward.fog[46].server[0] rho 1
scalar FogSequentialForward.fog[46].server[0] congestionRatio 0
scalar FogSequentialForward.fog[46].server[0] totalJobs 1284957
scalar FogSequentialForward.fog[46].server[0] droppedJobsQueue 17415
scalar FogSequentialForward.fog[46].server[0] droppedJobsTimout 0
scalar FogSequentialForward.fog[46].server[0] droppedJobsSLA 784047
scalar FogSequentialForward.fog[46].server[0] droppedJobsTotal 801462
scalar FogSequentialForward.fog[47].dispatcher localJobs 1285606
scalar FogSequentialForward.fog[47].dispatcher internalJobs 1442154
scalar FogSequentialForward.fog[47].dispatcher externalJobs 5465475
scalar FogSequentialForward.fog[47].dispatcher remoteJobs 5464062
scalar FogSequentialForward.fog[47].dispatcher probeQueries 0
scalar FogSequentialForward.fog[47].dispatcher probeAnswers 0
scalar FogSequentialForward.fog[47].dispatcher droppedJobsSLA 157961
scalar FogSequentialForward.fog[47].dispatcher jobs_class_1 6907629
scalar FogSequentialForward.fog[47].dispatcher remoteJobs_class_1 5464062
scalar FogSequentialForward.fog[47].dispatcher localJobs_class_1 1285606
scalar FogSequentialForward.fog[47].dispatcher droppedJobsSLA_class_1 157961
scalar FogSequentialForward.fog[47].server[0] rho 1
scalar FogSequentialForward.fog[47].server[0] congestionRatio 0
scalar FogSequentialForward.fog[47].server[0] totalJobs 1285606
scalar FogSequentialForward.fog[47].server[0] droppedJobsQueue 17304
scalar FogSequentialForward.fog[47].server[0] droppedJobsTimout 0
scalar FogSequentialForward.fog[47].server[0] droppedJobsSLA 784395
scalar FogSequentialForward.fog[47].server[0] droppedJobsTotal 801699
scalar FogSequentialForward.fog[48].dispatcher localJobs 1284849
scalar FogSequentialForward.fog[48].dispatcher internalJobs 1443529
scalar FogSequentialForward.fog[48].dispatcher externalJobs 5464492
scalar FogSequentialForward.fog[48].dispatcher remoteJobs 5465112
scalar FogSequentialForward.fog[48].dispatcher probeQueries 0
scalar FogSequentialForward.fog[48].dispatcher probeAnswers 0
scalar FogSequentialForward.fog[48].dispatcher droppedJobsSLA 158060
scalar FogSequentialForward.fog[48].dispatcher jobs_class_1 6908021
scalar FogSequentialForward.fog[48].dispatcher remoteJobs_class_1 5465112
scalar FogSequentialForward.fog[48].dispatcher localJobs_class_1 1284849
scalar FogSequentialForward.fog[48].dispatcher droppedJobsSLA_class_1 158060
scalar FogSequentialForward.fog[48].server[0] rho 1
scalar FogSequentialForward.fog[48].server[0] congestionRatio 0
scalar FogSequentialForward.fog[48].server[0] totalJobs 1284849
scalar FogSequentialForward.fog[48].server[0] droppedJobsQueue 17307
scalar FogSequentialForward.fog[48].server[0] droppedJobsTimout 0
scalar FogSequentialForward.fog[48].server[0] droppedJobsSLA 784287
scalar FogSequentialForward.fog[48].server[0] droppedJobsTotal 801594
scalar FogSequentialForward.fog[49].dispatcher localJobs 1285805
scalar FogSequentialForward.fog[49].dispatcher internalJobs 1441108
scalar FogSequentialForward.fog[49].dispatcher externalJobs 5463847
scalar FogSequentialForward.fog[49].dispatcher remoteJobs 5460966
scalar FogSequentialForward.fog[49].dispatcher probeQueries 0
scalar FogSequentialForward.fog[49].dispatcher probeAnswers 0
scalar FogSequentialForward.fog[49].dispatcher droppedJobsSLA 158184
scalar FogSequentialForward.fog[49].dispatcher jobs_class_1 6904955
scalar FogSequentialForward.fog[49].dispatcher remoteJobs_class_1 5460966
scalar FogSequentialForward.fog[49].dispatcher localJobs_class_1 1285805
scalar FogSequentialForward.fog[49].dispatcher droppedJobsSLA_class_1 158184
scalar FogSequentialForward.fog[49].server[0] rho 0.99999958276749
scalar FogSequentialForward.fog[49].server[0] congestionRatio 0
scalar FogSequentialForward.fog[49].server[0] totalJobs 1285805
scalar FogSequentialForward.fog[49].server[0] droppedJobsQueue 17491
scalar FogSequentialForward.fog[49].server[0] droppedJobsTimout 0
scalar FogSequentialForward.fog[49].server[0] droppedJobsSLA 783910
scalar FogSequentialForward.fog[49].server[0] droppedJobsTotal 801401
scalar FogSequentialForward.fog[50].dispatcher localJobs 1285654
scalar FogSequentialForward.fog[50].dispatcher internalJobs 1445647
scalar FogSequentialForward.fog[50].dispatcher externalJobs 5466176
scalar FogSequentialForward.fog[50].dispatcher remoteJobs 5467969
scalar FogSequentialForward.fog[50].dispatcher probeQueries 0
scalar FogSequentialForward.fog[50].dispatcher probeAnswers 0
scalar FogSequentialForward.fog[50].dispatcher droppedJobsSLA 158200
scalar FogSequentialForward.fog[50].dispatcher jobs_class_1 6911823
scalar FogSequentialForward.fog[50].dispatcher remoteJobs_class_1 5467969
scalar FogSequentialForward.fog[50].dispatcher localJobs_class_1 1285654
scalar FogSequentialForward.fog[50].dispatcher droppedJobsSLA_class_1 158200
scalar FogSequentialForward.fog[50].server[0] rho 1
scalar FogSequentialForward.fog[50].server[0] congestionRatio 0
scalar FogSequentialForward.fog[50].server[0] totalJobs 1285654
scalar FogSequentialForward.fog[50].server[0] droppedJobsQueue 17439
scalar FogSequentialForward.fog[50].server[0] droppedJobsTimout 0
scalar FogSequentialForward.fog[50].server[0] droppedJobsSLA 784356
scalar FogSequentialForward.fog[50].server[0] droppedJobsTotal 801795
scalar FogSequentialForward.fog[51].dispatcher localJobs 1285329
scalar FogSequentialForward.fog[51].dispatcher internalJobs 1443198
scalar FogSequentialForward.fog[51].dispatcher externalJobs 5462267
scalar FogSequentialForward.fog[51].dispatcher remoteJobs 5462110
scalar FogSequentialForward.fog[51].dispatcher probeQueries 0
scalar FogSequentialForward.fog[51].dispatcher probeAnswers 0
scalar FogSequentialForward.fog[51].dispatcher droppedJobsSLA 158026
scalar FogSequentialForward.fog[51].dispatcher jobs_class_1 6905465
scalar FogSequentialForward.fog[51].dispatcher remoteJobs_class_1 5462110
scalar FogSequentialForward.fog[51].dispatcher localJobs_class_1 1285329
scalar FogSequentialForward.fog[51].dispatcher droppedJobsSLA_class_1 158026
scalar FogSequentialForward.fog[51].server[0] rho 0.99999821186066
scalar FogSequentialForward.fog[51].server[0] congestionRatio 0
scalar FogSequentialForward.fog[51].server[0] totalJobs 1285329
scalar FogSequentialForward.fog[51].server[0] droppedJobsQueue 17296
scalar FogSequentialForward.fog[51].server[0] droppedJobsTimout 0
scalar FogSequentialForward.fog[51].server[0] droppedJobsSLA 784168
scalar FogSequentialForward.fog[51].server[0] droppedJobsTotal 801464
scalar FogSequentialForward.fog[52].dispatcher localJobs 1285498
scalar FogSequentialForward.fog[52].dispatcher internalJobs 1441040
scalar FogSequentialForward.fog[52].dispatcher externalJobs 5465557
scalar FogSequentialForward.fog[52].dispatcher remoteJobs 5463499
scalar FogSequentialForward.fog[52].dispatcher probeQueries 0
scalar FogSequentialForward.fog[52].dispatcher probeAnswers 0
scalar FogSequentialForward.fog[52].dispatcher droppedJobsSLA 157600
scalar FogSequentialForward.fog[52].dispatcher jobs_class_1 6906597
scalar FogSequentialForward.fog[52].dispatcher remoteJobs_class_1 5463499
scalar FogSequentialForward.fog[52].dispatcher localJobs_class_1 1285498
scalar FogSequentialForward.fog[52].dispatcher droppedJobsSLA_class_1 157600
scalar FogSequentialForward.fog[52].server[0] rho 1
scalar FogSequentialForward.fog[52].server[0] congestionRatio 0
scalar FogSequentialForward.fog[52].server[0] totalJobs 1285498
scalar FogSequentialForward.fog[52].server[0] droppedJobsQueue 17416
scalar FogSequentialForward.fog[52].server[0] droppedJobsTimout 0
scalar FogSequentialForward.fog[52].server[0] droppedJobsSLA 784459
scalar FogSequentialForward.fog[52].server[0] droppedJobsTotal 801875
scalar FogSequentialForward.fog[53].dispatcher localJobs 1284741
scalar FogSequentialForward.fog[53].dispatcher internalJobs 1444561
scalar FogSequentialForward.fog[53].dispatcher externalJobs 5461069
scalar FogSequentialForward.fog[53].dispatcher remoteJobs 5462634
scalar FogSequentialForward.fog[53].dispatcher probeQueries 0
scalar FogSequentialForward.fog[53].dispatcher probeAnswers 0
scalar FogSequentialForward.fog[53].dispatcher droppedJobsSLA 158255
scalar FogSequentialForward.fog[53].dispatcher jobs_class_1 6905630
scalar FogSequentialForward.fog[53].dispatcher remoteJobs_class_1 5462634
scalar FogSequentialForward.fog[53].dispatcher localJobs_class_1 1284741
scalar FogSequentialForward.fog[53].dispatcher droppedJobsSLA_class_1 158255
scalar FogSequentialForward.fog[53].server[0] rho 1
scalar FogSequentialForward.fog[53].server[0] congestionRatio 0
scalar FogSequentialForward.fog[53].server[0] totalJobs 1284741
scalar FogSequentialForward.fog[53].server[0] droppedJobsQueue 17333
scalar FogSequentialForward.fog[53].server[0] droppedJobsTimout 0
scalar FogSequentialForward.fog[53].server[0] droppedJobsSLA 783729
scalar FogSequentialForward.fog[53].server[0] droppedJobsTotal 801062
scalar FogSequentialForward.fog[54].dispatcher localJobs 1285720
scalar FogSequentialForward.fog[54].dispatcher internalJobs 1439947
scalar FogSequentialForward.fog[54].dispatcher externalJobs 5466823
scalar FogSequentialForward.fog[54].dispatcher remoteJobs 5463008
scalar FogSequentialForward.fog[54].dispatcher probeQueries 0
scalar FogSequentialForward.fog[54].dispatcher probeAnswers 0
scalar FogSequentialForward.fog[54].dispatcher droppedJobsSLA 158042
scalar FogSequentialForward.fog[54].dispatcher jobs_class_1 6906770
scalar FogSequentialForward.fog[54].dispatcher remoteJobs_class_1 5463008
scalar FogSequentialForward.fog[54].dispatcher localJobs_class_1 1285720
scalar FogSequentialForward.fog[54].dispatcher droppedJobsSLA_class_1 158042
scalar FogSequentialForward.fog[54].server[0] rho 1
scalar FogSequentialForward.fog[54].server[0] congestionRatio 0
scalar FogSequentialForward.fog[54].server[0] totalJobs 1285720
scalar FogSequentialForward.fog[54].server[0] droppedJobsQueue 17633
scalar FogSequentialForward.fog[54].server[0] droppedJobsTimout 0
scalar FogSequentialForward.fog[54].server[0] droppedJobsSLA 784132
scalar FogSequentialForward.fog[54].server[0] droppedJobsTotal 801765
scalar FogSequentialForward.fog[55].dispatcher localJobs 1285106
scalar FogSequentialForward.fog[55].dispatcher internalJobs 1442200
scalar FogSequentialForward.fog[55].dispatcher externalJobs 5461463
scalar FogSequentialForward.fog[55].dispatcher remoteJobs 5461296
scalar FogSequentialForward.fog[55].dispatcher probeQueries 0
scalar FogSequentialForward.fog[55].dispatcher probeAnswers 0
scalar FogSequentialForward.fog[55].dispatcher droppedJobsSLA 157261
scalar FogSequentialForward.fog[55].dispatcher jobs_class_1 6903663
scalar FogSequentialForward.fog[55].dispatcher remoteJobs_class_1 5461296
scalar FogSequentialForward.fog[55].dispatcher localJobs_class_1 1285106
scalar FogSequentialForward.fog[55].dispatcher droppedJobsSLA_class_1 157261
scalar FogSequentialForward.fog[55].server[0] rho 0.99999964237213
scalar FogSequentialForward.fog[55].server[0] congestionRatio 0
scalar FogSequentialForward.fog[55].server[0] totalJobs 1285106
scalar FogSequentialForward.fog[55].server[0] droppedJobsQueue 17354
scalar FogSequentialForward.fog[55].server[0] droppedJobsTimout 0
scalar FogSequentialForward.fog[55].server[0] droppedJobsSLA 783434
scalar FogSequentialForward.fog[55].server[0] droppedJobsTotal 800788
scalar FogSequentialForward.fog[56].dispatcher localJobs 1285784
scalar FogSequentialForward.fog[56].dispatcher internalJobs 1443580
scalar FogSequentialForward.fog[56].dispatcher externalJobs 5467545
scalar FogSequentialForward.fog[56].dispatcher remoteJobs 5467037
scalar FogSequentialForward.fog[56].dispatcher probeQueries 0
scalar FogSequentialForward.fog[56].dispatcher probeAnswers 0
scalar FogSequentialForward.fog[56].dispatcher droppedJobsSLA 158304
scalar FogSequentialForward.fog[56].dispatcher jobs_class_1 6911125
scalar FogSequentialForward.fog[56].dispatcher remoteJobs_class_1 5467037
scalar FogSequentialForward.fog[56].dispatcher localJobs_class_1 1285784
scalar FogSequentialForward.fog[56].dispatcher droppedJobsSLA_class_1 158304
scalar FogSequentialForward.fog[56].server[0] rho 1
scalar FogSequentialForward.fog[56].server[0] congestionRatio 0
scalar FogSequentialForward.fog[56].server[0] totalJobs 1285784
scalar FogSequentialForward.fog[56].server[0] droppedJobsQueue 17438
scalar FogSequentialForward.fog[56].server[0] droppedJobsTimout 0
scalar FogSequentialForward.fog[56].server[0] droppedJobsSLA 784567
scalar FogSequentialForward.fog[56].server[0] droppedJobsTotal 802005
scalar FogSequentialForward.fog[57].dispatcher localJobs 1285180
scalar FogSequentialForward.fog[57].dispatcher internalJobs 1443939
scalar FogSequentialForward.fog[57].dispatcher externalJobs 5467733
scalar FogSequentialForward.fog[57].dispatcher remoteJobs 5468525
scalar FogSequentialForward.fog[57].dispatcher probeQueries 0
scalar FogSequentialForward.fog[57].dispatcher probeAnswers 0
scalar FogSequentialForward.fog[57].dispatcher droppedJobsSLA 157967
scalar FogSequentialForward.fog[57].dispatcher jobs_class_1 6911672
scalar FogSequentialForward.fog[57].dispatcher remoteJobs_class_1 5468525
scalar FogSequentialForward.fog[57].dispatcher localJobs_class_1 1285180
scalar FogSequentialForward.fog[57].dispatcher droppedJobsSLA_class_1 157967
scalar FogSequentialForward.fog[57].server[0] rho 1
scalar FogSequentialForward.fog[57].server[0] congestionRatio 0
scalar FogSequentialForward.fog[57].server[0] totalJobs 1285180
scalar FogSequentialForward.fog[57].server[0] droppedJobsQueue 17526
scalar FogSequentialForward.fog[57].server[0] droppedJobsTimout 0
scalar FogSequentialForward.fog[57].server[0] droppedJobsSLA 783766
scalar FogSequentialForward.fog[57].server[0] droppedJobsTotal 801292
scalar FogSequentialForward.fog[58].dispatcher localJobs 1285503
scalar FogSequentialForward.fog[58].dispatcher internalJobs 1441349
scalar FogSequentialForward.fog[58].dispatcher externalJobs 5464873
scalar FogSequentialForward.fog[58].dispatcher remoteJobs 5462573
scalar FogSequentialForward.fog[58].dispatcher probeQueries 0
scalar FogSequentialForward.fog[58].dispatcher probeAnswers 0
scalar FogSequentialForward.fog[58].dispatcher droppedJobsSLA 158146
scalar FogSequentialForward.fog[58].dispatcher jobs_class_1 6906222
scalar FogSequentialForward.fog[58].dispatcher remoteJobs_class_1 5462573
scalar FogSequentialForward.fog[58].dispatcher localJobs_class_1 1285503
scalar FogSequentialForward.fog[58].dispatcher droppedJobsSLA_class_1 158146
scalar FogSequentialForward.fog[58].server[0] rho 1
scalar FogSequentialForward.fog[58].server[0] congestionRatio 0
scalar FogSequentialForward.fog[58].server[0] totalJobs 1285503
scalar FogSequentialForward.fog[58].server[0] droppedJobsQueue 17343
scalar FogSequentialForward.fog[58].server[0] droppedJobsTimout 0
scalar FogSequentialForward.fog[58].server[0] droppedJobsSLA 784336
scalar FogSequentialForward.fog[58].server[0] droppedJobsTotal 801679
scalar FogSequentialForward.fog[59].dispatcher localJobs 1284701
scalar FogSequentialForward.fog[59].dispatcher internalJobs 1442459
scalar FogSequentialForward.fog[59].dispatcher externalJobs 5462557
scalar FogSequentialForward.fog[59].dispatcher remoteJobs 5462088
scalar FogSequentialForward.fog[59].dispatcher probeQueries 0
scalar FogSequentialForward.fog[59].dispatcher probeAnswers 0
scalar FogSequentialForward.fog[59].dispatcher droppedJobsSLA 158227
scalar FogSequentialForward.fog[59].dispatcher jobs_class_1 6905016
scalar FogSequentialForward.fog[59].dispatcher remoteJobs_class_1 5462088
scalar FogSequentialForward.fog[59].dispatcher localJobs_class_1 1284701
scalar FogSequentialForward.fog[59].dispatcher droppedJobsSLA_class_1 158227
scalar FogSequentialForward.fog[59].server[0] rho 0.99999964237213
scalar FogSequentialForward.fog[59].server[0] congestionRatio 0
scalar FogSequentialForward.fog[59].server[0] totalJobs 1284701
scalar FogSequentialForward.fog[59].server[0] droppedJobsQueue 17415
scalar FogSequentialForward.fog[59].server[0] droppedJobsTimout 0
scalar FogSequentialForward.fog[59].server[0] droppedJobsSLA 783000
scalar FogSequentialForward.fog[59].server[0] droppedJobsTotal 800415
scalar FogSequentialForward.fog[60].dispatcher localJobs 1284888
scalar FogSequentialForward.fog[60].dispatcher internalJobs 1444143
scalar FogSequentialForward.fog[60].dispatcher externalJobs 5465439
scalar FogSequentialForward.fog[60].dispatcher remoteJobs 5466832
scalar FogSequentialForward.fog[60].dispatcher probeQueries 0
scalar FogSequentialForward.fog[60].dispatcher probeAnswers 0
scalar FogSequentialForward.fog[60].dispatcher droppedJobsSLA 157862
scalar FogSequentialForward.fog[60].dispatcher jobs_class_1 6909582
scalar FogSequentialForward.fog[60].dispatcher remoteJobs_class_1 5466832
scalar FogSequentialForward.fog[60].dispatcher localJobs_class_1 1284888
scalar FogSequentialForward.fog[60].dispatcher droppedJobsSLA_class_1 157862
scalar FogSequentialForward.fog[60].server[0] rho 1
scalar FogSequentialForward.fog[60].server[0] congestionRatio 0
scalar FogSequentialForward.fog[60].server[0] totalJobs 1284888
scalar FogSequentialForward.fog[60].server[0] droppedJobsQueue 17459
scalar FogSequentialForward.fog[60].server[0] droppedJobsTimout 0
scalar FogSequentialForward.fog[60].server[0] droppedJobsSLA 783564
scalar FogSequentialForward.fog[60].server[0] droppedJobsTotal 801023
scalar FogSequentialForward.fog[61].dispatcher localJobs 1284564
scalar FogSequentialForward.fog[61].dispatcher internalJobs 1444492
scalar FogSequentialForward.fog[61].dispatcher externalJobs 5465181
scalar FogSequentialForward.fog[61].dispatcher remoteJobs 5467545
scalar FogSequentialForward.fog[61].dispatcher probeQueries 0
scalar FogSequentialForward.fog[61].dispatcher probeAnswers 0
scalar FogSequentialForward.fog[61].dispatcher droppedJobsSLA 157564
scalar FogSequentialForward.fog[61].dispatcher jobs_class_1 6909673
scalar FogSequentialForward.fog[61].dispatcher remoteJobs_class_1 5467545
scalar FogSequentialForward.fog[61].dispatcher localJobs_class_1 1284564
scalar FogSequentialForward.fog[61].dispatcher droppedJobsSLA_class_1 157564
scalar FogSequentialForward.fog[61].server[0] rho 0.99999970197678
scalar FogSequentialForward.fog[61].server[0] congestionRatio 0
scalar FogSequentialForward.fog[61].server[0] totalJobs 1284564
scalar FogSequentialForward.fog[61].server[0] droppedJobsQueue 17250
scalar FogSequentialForward.fog[61].server[0] droppedJobsTimout 0
scalar FogSequentialForward.fog[61].server[0] droppedJobsSLA 783179
scalar FogSequentialForward.fog[61].server[0] droppedJobsTotal 800429
scalar FogSequentialForward.fog[62].dispatcher localJobs 1284077
scalar FogSequentialForward.fog[62].dispatcher internalJobs 1442385
scalar FogSequentialForward.fog[62].dispatcher externalJobs 5463576
scalar FogSequentialForward.fog[62].dispatcher remoteJobs 5463914
scalar FogSequentialForward.fog[62].dispatcher probeQueries 0
scalar FogSequentialForward.fog[62].dispatcher probeAnswers 0
scalar FogSequentialForward.fog[62].dispatcher droppedJobsSLA 157970
scalar FogSequentialForward.fog[62].dispatcher jobs_class_1 6905961
scalar FogSequentialForward.fog[62].dispatcher remoteJobs_class_1 5463914
scalar FogSequentialForward.fog[62].dispatcher localJobs_class_1 1284077
scalar FogSequentialForward.fog[62].dispatcher droppedJobsSLA_class_1 157970
scalar FogSequentialForward.fog[62].server[0] rho 1
scalar FogSequentialForward.fog[62].server[0] congestionRatio 0
scalar FogSequentialForward.fog[62].server[0] totalJobs 1284077
scalar FogSequentialForward.fog[62].server[0] droppedJobsQueue 17185
scalar FogSequentialForward.fog[62].server[0] droppedJobsTimout 0
scalar FogSequentialForward.fog[62].server[0] droppedJobsSLA 783377
scalar FogSequentialForward.fog[62].server[0] droppedJobsTotal 800562
scalar FogSequentialForward.fog[63].dispatcher localJobs 1284748
scalar FogSequentialForward.fog[63].dispatcher internalJobs 1441648
scalar FogSequentialForward.fog[63].dispatcher externalJobs 5461784
scalar FogSequentialForward.fog[63].dispatcher remoteJobs 5460492
scalar FogSequentialForward.fog[63].dispatcher probeQueries 0
scalar FogSequentialForward.fog[63].dispatcher probeAnswers 0
scalar FogSequentialForward.fog[63].dispatcher droppedJobsSLA 158192
scalar FogSequentialForward.fog[63].dispatcher jobs_class_1 6903432
scalar FogSequentialForward.fog[63].dispatcher remoteJobs_class_1 5460492
scalar FogSequentialForward.fog[63].dispatcher localJobs_class_1 1284748
scalar FogSequentialForward.fog[63].dispatcher droppedJobsSLA_class_1 158192
scalar FogSequentialForward.fog[63].server[0] rho 0.99999916553497
scalar FogSequentialForward.fog[63].server[0] congestionRatio 0
scalar FogSequentialForward.fog[63].server[0] totalJobs 1284748
scalar FogSequentialForward.fog[63].server[0] droppedJobsQueue 17275
scalar FogSequentialForward.fog[63].server[0] droppedJobsTimout 0
scalar FogSequentialForward.fog[63].server[0] droppedJobsSLA 784007
scalar FogSequentialForward.fog[63].server[0] droppedJobsTotal 801282
scalar FogSequentialForward.fog[64].dispatcher localJobs 1284364
scalar FogSequentialForward.fog[64].dispatcher internalJobs 1441998
scalar FogSequentialForward.fog[64].dispatcher externalJobs 5464748
scalar FogSequentialForward.fog[64].dispatcher remoteJobs 5465183
scalar FogSequentialForward.fog[64].dispatcher probeQueries 0
scalar FogSequentialForward.fog[64].dispatcher probeAnswers 0
scalar FogSequentialForward.fog[64].dispatcher droppedJobsSLA 157199
scalar FogSequentialForward.fog[64].dispatcher jobs_class_1 6906746
scalar FogSequentialForward.fog[64].dispatcher remoteJobs_class_1 5465183
scalar FogSequentialForward.fog[64].dispatcher localJobs_class_1 1284364
scalar FogSequentialForward.fog[64].dispatcher droppedJobsSLA_class_1 157199
scalar FogSequentialForward.fog[64].server[0] rho 1
scalar FogSequentialForward.fog[64].server[0] congestionRatio 0
scalar FogSequentialForward.fog[64].server[0] totalJobs 1284364
scalar FogSequentialForward.fog[64].server[0] droppedJobsQueue 17316
scalar FogSequentialForward.fog[64].server[0] droppedJobsTimout 0
scalar FogSequentialForward.fog[64].server[0] droppedJobsSLA 783451
scalar FogSequentialForward.fog[64].server[0] droppedJobsTotal 800767
scalar FogSequentialForward.fog[65].dispatcher localJobs 1285863
scalar FogSequentialForward.fog[65].dispatcher internalJobs 1443868
scalar FogSequentialForward.fog[65].dispatcher externalJobs 5465831
scalar FogSequentialForward.fog[65].dispatcher remoteJobs 5466170
scalar FogSequentialForward.fog[65].dispatcher probeQueries 0
[...]
scalar FogSequentialForward.fog[84].dispatcher jobs_class_1 6908225
scalar FogSequentialForward.fog[84].dispatcher remoteJobs_class_1 5465447
scalar FogSequentialForward.fog[84].dispatcher localJobs_class_1 1284812
scalar FogSequentialForward.fog[84].dispatcher droppedJobsSLA_class_1 157966
scalar FogSequentialForward.fog[84].server[0] rho 1
scalar FogSequentialForward.fog[84].server[0] congestionRatio 0
scalar FogSequentialForward.fog[84].server[0] totalJobs 1284812
scalar FogSequentialForward.fog[84].server[0] droppedJobsQueue 17573
scalar FogSequentialForward.fog[84].server[0] droppedJobsTimout 0
scalar FogSequentialForward.fog[84].server[0] droppedJobsSLA 783870
scalar FogSequentialForward.fog[84].server[0] droppedJobsTotal 801443
scalar FogSequentialForward.fog[85].dispatcher localJobs 1284577
scalar FogSequentialForward.fog[85].dispatcher internalJobs 1444398
scalar FogSequentialForward.fog[85].dispatcher externalJobs 5462750
scalar FogSequentialForward.fog[85].dispatcher remoteJobs 5464751
scalar FogSequentialForward.fog[85].dispatcher probeQueries 0
scalar FogSequentialForward.fog[85].dispatcher probeAnswers 0
scalar FogSequentialForward.fog[85].dispatcher droppedJobsSLA 157820
scalar FogSequentialForward.fog[85].dispatcher jobs_class_1 6907148
scalar FogSequentialForward.fog[85].dispatcher remoteJobs_class_1 5464751
scalar FogSequentialForward.fog[85].dispatcher localJobs_class_1 1284577
scalar FogSequentialForward.fog[85].dispatcher droppedJobsSLA_class_1 157820
scalar FogSequentialForward.fog[85].server[0] rho 0.99999910593033
scalar FogSequentialForward.fog[85].server[0] congestionRatio 0
scalar FogSequentialForward.fog[85].server[0] totalJobs 1284577
scalar FogSequentialForward.fog[85].server[0] droppedJobsQueue 17139
scalar FogSequentialForward.fog[85].server[0] droppedJobsTimout 0
scalar FogSequentialForward.fog[85].server[0] droppedJobsSLA 783308
scalar FogSequentialForward.fog[85].server[0] droppedJobsTotal 800447
scalar FogSequentialForward.fog[86].dispatcher localJobs 1283767
scalar FogSequentialForward.fog[86].dispatcher internalJobs 1443961
scalar FogSequentialForward.fog[86].dispatcher externalJobs 5460286
scalar FogSequentialForward.fog[86].dispatcher remoteJobs 5462589
scalar FogSequentialForward.fog[86].dispatcher probeQueries 0
scalar FogSequentialForward.fog[86].dispatcher probeAnswers 0
scalar FogSequentialForward.fog[86].dispatcher droppedJobsSLA 157891
scalar FogSequentialForward.fog[86].dispatcher jobs_class_1 6904247
scalar FogSequentialForward.fog[86].dispatcher remoteJobs_class_1 5462589
scalar FogSequentialForward.fog[86].dispatcher localJobs_class_1 1283767
scalar FogSequentialForward.fog[86].dispatcher droppedJobsSLA_class_1 157891
scalar FogSequentialForward.fog[86].server[0] rho 1
scalar FogSequentialForward.fog[86].server[0] congestionRatio 0
scalar FogSequentialForward.fog[86].server[0] totalJobs 1283767
scalar FogSequentialForward.fog[86].server[0] droppedJobsQueue 17430
scalar FogSequentialForward.fog[86].server[0] droppedJobsTimout 0
scalar FogSequentialForward.fog[86].server[0] droppedJobsSLA 782578
scalar FogSequentialForward.fog[86].server[0] droppedJobsTotal 800008
scalar FogSequentialForward.fog[87].dispatcher localJobs 1285446
scalar FogSequentialForward.fog[87].dispatcher internalJobs 1442188
scalar FogSequentialForward.fog[87].dispatcher externalJobs 5463441
scalar FogSequentialForward.fog[87].dispatcher remoteJobs 5462584
scalar FogSequentialForward.fog[87].dispatcher probeQueries 0
scalar FogSequentialForward.fog[87].dispatcher probeAnswers 0
scalar FogSequentialForward.fog[87].dispatcher droppedJobsSLA 157599
scalar FogSequentialForward.fog[87].dispatcher jobs_class_1 6905629
scalar FogSequentialForward.fog[87].dispatcher remoteJobs_class_1 5462584
scalar FogSequentialForward.fog[87].dispatcher localJobs_class_1 1285446
scalar FogSequentialForward.fog[87].dispatcher droppedJobsSLA_class_1 157599
scalar FogSequentialForward.fog[87].server[0] rho 1
scalar FogSequentialForward.fog[87].server[0] congestionRatio 0
scalar FogSequentialForward.fog[87].server[0] totalJobs 1285446
scalar FogSequentialForward.fog[87].server[0] droppedJobsQueue 17362
scalar FogSequentialForward.fog[87].server[0] droppedJobsTimout 0
scalar FogSequentialForward.fog[87].server[0] droppedJobsSLA 783848
scalar FogSequentialForward.fog[87].server[0] droppedJobsTotal 801210
scalar FogSequentialForward.fog[88].dispatcher localJobs 1285179
scalar FogSequentialForward.fog[88].dispatcher internalJobs 1443834
scalar FogSequentialForward.fog[88].dispatcher externalJobs 5467215
scalar FogSequentialForward.fog[88].dispatcher remoteJobs 5468314
scalar FogSequentialForward.fog[88].dispatcher probeQueries 0
scalar FogSequentialForward.fog[88].dispatcher probeAnswers 0
scalar FogSequentialForward.fog[88].dispatcher droppedJobsSLA 157556
scalar FogSequentialForward.fog[88].dispatcher jobs_class_1 6911049
scalar FogSequentialForward.fog[88].dispatcher remoteJobs_class_1 5468314
scalar FogSequentialForward.fog[88].dispatcher localJobs_class_1 1285179
scalar FogSequentialForward.fog[88].dispatcher droppedJobsSLA_class_1 157556
scalar FogSequentialForward.fog[88].server[0] rho 1
scalar FogSequentialForward.fog[88].server[0] congestionRatio 0
scalar FogSequentialForward.fog[88].server[0] totalJobs 1285179
scalar FogSequentialForward.fog[88].server[0] droppedJobsQueue 17461
scalar FogSequentialForward.fog[88].server[0] droppedJobsTimout 0
scalar FogSequentialForward.fog[88].server[0] droppedJobsSLA 783710
scalar FogSequentialForward.fog[88].server[0] droppedJobsTotal 801171
scalar FogSequentialForward.fog[89].dispatcher localJobs 1285317
scalar FogSequentialForward.fog[89].dispatcher internalJobs 1442278
scalar FogSequentialForward.fog[89].dispatcher externalJobs 5464814
scalar FogSequentialForward.fog[89].dispatcher remoteJobs 5464372
scalar FogSequentialForward.fog[89].dispatcher probeQueries 0
scalar FogSequentialForward.fog[89].dispatcher probeAnswers 0
scalar FogSequentialForward.fog[89].dispatcher droppedJobsSLA 157403
scalar FogSequentialForward.fog[89].dispatcher jobs_class_1 6907092
scalar FogSequentialForward.fog[89].dispatcher remoteJobs_class_1 5464372
scalar FogSequentialForward.fog[89].dispatcher localJobs_class_1 1285317
scalar FogSequentialForward.fog[89].dispatcher droppedJobsSLA_class_1 157403
scalar FogSequentialForward.fog[89].server[0] rho 1
scalar FogSequentialForward.fog[89].server[0] congestionRatio 0
scalar FogSequentialForward.fog[89].server[0] totalJobs 1285317
scalar FogSequentialForward.fog[89].server[0] droppedJobsQueue 17326
scalar FogSequentialForward.fog[89].server[0] droppedJobsTimout 0
scalar FogSequentialForward.fog[89].server[0] droppedJobsSLA 783617
scalar FogSequentialForward.fog[89].server[0] droppedJobsTotal 800943
scalar FogSequentialForward.fog[90].dispatcher localJobs 1284272
scalar FogSequentialForward.fog[90].dispatcher internalJobs 1442533
scalar FogSequentialForward.fog[90].dispatcher externalJobs 5463798
scalar FogSequentialForward.fog[90].dispatcher remoteJobs 5464222
scalar FogSequentialForward.fog[90].dispatcher probeQueries 0
scalar FogSequentialForward.fog[90].dispatcher probeAnswers 0
scalar FogSequentialForward.fog[90].dispatcher droppedJobsSLA 157837
scalar FogSequentialForward.fog[90].dispatcher jobs_class_1 6906331
scalar FogSequentialForward.fog[90].dispatcher remoteJobs_class_1 5464222
scalar FogSequentialForward.fog[90].dispatcher localJobs_class_1 1284272
scalar FogSequentialForward.fog[90].dispatcher droppedJobsSLA_class_1 157837
scalar FogSequentialForward.fog[90].server[0] rho 1
scalar FogSequentialForward.fog[90].server[0] congestionRatio 0
scalar FogSequentialForward.fog[90].server[0] totalJobs 1284272
scalar FogSequentialForward.fog[90].server[0] droppedJobsQueue 17333
scalar FogSequentialForward.fog[90].server[0] droppedJobsTimout 0
scalar FogSequentialForward.fog[90].server[0] droppedJobsSLA 782722
scalar FogSequentialForward.fog[90].server[0] droppedJobsTotal 800055
scalar FogSequentialForward.fog[91].dispatcher localJobs 1285157
scalar FogSequentialForward.fog[91].dispatcher internalJobs 1446190
scalar FogSequentialForward.fog[91].dispatcher externalJobs 5461432
scalar FogSequentialForward.fog[91].dispatcher remoteJobs 5464384
scalar FogSequentialForward.fog[91].dispatcher probeQueries 0
scalar FogSequentialForward.fog[91].dispatcher probeAnswers 0
scalar FogSequentialForward.fog[91].dispatcher droppedJobsSLA 158081
scalar FogSequentialForward.fog[91].dispatcher jobs_class_1 6907622
scalar FogSequentialForward.fog[91].dispatcher remoteJobs_class_1 5464384
scalar FogSequentialForward.fog[91].dispatcher localJobs_class_1 1285157
scalar FogSequentialForward.fog[91].dispatcher droppedJobsSLA_class_1 158081
scalar FogSequentialForward.fog[91].server[0] rho 0.99999970197678
scalar FogSequentialForward.fog[91].server[0] congestionRatio 0
scalar FogSequentialForward.fog[91].server[0] totalJobs 1285157
scalar FogSequentialForward.fog[91].server[0] droppedJobsQueue 17239
scalar FogSequentialForward.fog[91].server[0] droppedJobsTimout 0
scalar FogSequentialForward.fog[91].server[0] droppedJobsSLA 783730
scalar FogSequentialForward.fog[91].server[0] droppedJobsTotal 800969
scalar FogSequentialForward.fog[92].dispatcher localJobs 1285151
scalar FogSequentialForward.fog[92].dispatcher internalJobs 1443487
scalar FogSequentialForward.fog[92].dispatcher externalJobs 5462409
scalar FogSequentialForward.fog[92].dispatcher remoteJobs 5462977
scalar FogSequentialForward.fog[92].dispatcher probeQueries 0
scalar FogSequentialForward.fog[92].dispatcher probeAnswers 0
scalar FogSequentialForward.fog[92].dispatcher droppedJobsSLA 157768
scalar FogSequentialForward.fog[92].dispatcher jobs_class_1 6905896
scalar FogSequentialForward.fog[92].dispatcher remoteJobs_class_1 5462977
scalar FogSequentialForward.fog[92].dispatcher localJobs_class_1 1285151
scalar FogSequentialForward.fog[92].dispatcher droppedJobsSLA_class_1 157768
scalar FogSequentialForward.fog[92].server[0] rho 1
scalar FogSequentialForward.fog[92].server[0] congestionRatio 0
scalar FogSequentialForward.fog[92].server[0] totalJobs 1285151
scalar FogSequentialForward.fog[92].server[0] droppedJobsQueue 17406
scalar FogSequentialForward.fog[92].server[0] droppedJobsTimout 0
scalar FogSequentialForward.fog[92].server[0] droppedJobsSLA 783916
scalar FogSequentialForward.fog[92].server[0] droppedJobsTotal 801322
scalar FogSequentialForward.fog[93].dispatcher localJobs 1285709
scalar FogSequentialForward.fog[93].dispatcher internalJobs 1444148
scalar FogSequentialForward.fog[93].dispatcher externalJobs 5460419
scalar FogSequentialForward.fog[93].dispatcher remoteJobs 5460874
scalar FogSequentialForward.fog[93].dispatcher probeQueries 0
scalar FogSequentialForward.fog[93].dispatcher probeAnswers 0
scalar FogSequentialForward.fog[93].dispatcher droppedJobsSLA 157984
scalar FogSequentialForward.fog[93].dispatcher jobs_class_1 6904567
scalar FogSequentialForward.fog[93].dispatcher remoteJobs_class_1 5460874
scalar FogSequentialForward.fog[93].dispatcher localJobs_class_1 1285709
scalar FogSequentialForward.fog[93].dispatcher droppedJobsSLA_class_1 157984
scalar FogSequentialForward.fog[93].server[0] rho 1
scalar FogSequentialForward.fog[93].server[0] congestionRatio 0
scalar FogSequentialForward.fog[93].server[0] totalJobs 1285709
scalar FogSequentialForward.fog[93].server[0] droppedJobsQueue 17275
scalar FogSequentialForward.fog[93].server[0] droppedJobsTimout 0
scalar FogSequentialForward.fog[93].server[0] droppedJobsSLA 784454
scalar FogSequentialForward.fog[93].server[0] droppedJobsTotal 801729
scalar FogSequentialForward.fog[94].dispatcher localJobs 1283957
scalar FogSequentialForward.fog[94].dispatcher internalJobs 1443557
scalar FogSequentialForward.fog[94].dispatcher externalJobs 5461139
scalar FogSequentialForward.fog[94].dispatcher remoteJobs 5462350
scalar FogSequentialForward.fog[94].dispatcher probeQueries 0
scalar FogSequentialForward.fog[94].dispatcher probeAnswers 0
scalar FogSequentialForward.fog[94].dispatcher droppedJobsSLA 158389
scalar FogSequentialForward.fog[94].dispatcher jobs_class_1 6904696
scalar FogSequentialForward.fog[94].dispatcher remoteJobs_class_1 5462350
scalar FogSequentialForward.fog[94].dispatcher localJobs_class_1 1283957
scalar FogSequentialForward.fog[94].dispatcher droppedJobsSLA_class_1 158389
scalar FogSequentialForward.fog[94].server[0] rho 1
scalar FogSequentialForward.fog[94].server[0] congestionRatio 0
scalar FogSequentialForward.fog[94].server[0] totalJobs 1283957
scalar FogSequentialForward.fog[94].server[0] droppedJobsQueue 17146
scalar FogSequentialForward.fog[94].server[0] droppedJobsTimout 0
scalar FogSequentialForward.fog[94].server[0] droppedJobsSLA 783259
scalar FogSequentialForward.fog[94].server[0] droppedJobsTotal 800405
scalar FogSequentialForward.fog[95].dispatcher localJobs 1284150
scalar FogSequentialForward.fog[95].dispatcher internalJobs 1443054
scalar FogSequentialForward.fog[95].dispatcher externalJobs 5461217
scalar FogSequentialForward.fog[95].dispatcher remoteJobs 5462056
scalar FogSequentialForward.fog[95].dispatcher probeQueries 0
scalar FogSequentialForward.fog[95].dispatcher probeAnswers 0
scalar FogSequentialForward.fog[95].dispatcher droppedJobsSLA 158065
scalar FogSequentialForward.fog[95].dispatcher jobs_class_1 6904271
scalar FogSequentialForward.fog[95].dispatcher remoteJobs_class_1 5462056
scalar FogSequentialForward.fog[95].dispatcher localJobs_class_1 1284150
scalar FogSequentialForward.fog[95].dispatcher droppedJobsSLA_class_1 158065
scalar FogSequentialForward.fog[95].server[0] rho 1
scalar FogSequentialForward.fog[95].server[0] congestionRatio 0
scalar FogSequentialForward.fog[95].server[0] totalJobs 1284150
scalar FogSequentialForward.fog[95].server[0] droppedJobsQueue 17264
scalar FogSequentialForward.fog[95].server[0] droppedJobsTimout 0
scalar FogSequentialForward.fog[95].server[0] droppedJobsSLA 782233
scalar FogSequentialForward.fog[95].server[0] droppedJobsTotal 799497
scalar FogSequentialForward.fog[96].dispatcher localJobs 1285385
scalar FogSequentialForward.fog[96].dispatcher internalJobs 1441762
scalar FogSequentialForward.fog[96].dispatcher externalJobs 5461728
scalar FogSequentialForward.fog[96].dispatcher remoteJobs 5460585
scalar FogSequentialForward.fog[96].dispatcher probeQueries 0
scalar FogSequentialForward.fog[96].dispatcher probeAnswers 0
scalar FogSequentialForward.fog[96].dispatcher droppedJobsSLA 157520
scalar FogSequentialForward.fog[96].dispatcher jobs_class_1 6903490
scalar FogSequentialForward.fog[96].dispatcher remoteJobs_class_1 5460585
scalar FogSequentialForward.fog[96].dispatcher localJobs_class_1 1285385
scalar FogSequentialForward.fog[96].dispatcher droppedJobsSLA_class_1 157520
scalar FogSequentialForward.fog[96].server[0] rho 1
scalar FogSequentialForward.fog[96].server[0] congestionRatio 0
scalar FogSequentialForward.fog[96].server[0] totalJobs 1285385
scalar FogSequentialForward.fog[96].server[0] droppedJobsQueue 17354
scalar FogSequentialForward.fog[96].server[0] droppedJobsTimout 0
scalar FogSequentialForward.fog[96].server[0] droppedJobsSLA 783362
scalar FogSequentialForward.fog[96].server[0] droppedJobsTotal 800716
scalar FogSequentialForward.fog[97].dispatcher localJobs 1284438
scalar FogSequentialForward.fog[97].dispatcher internalJobs 1445339
scalar FogSequentialForward.fog[97].dispatcher externalJobs 5463359
scalar FogSequentialForward.fog[97].dispatcher remoteJobs 5466181
scalar FogSequentialForward.fog[97].dispatcher probeQueries 0
scalar FogSequentialForward.fog[97].dispatcher probeAnswers 0
scalar FogSequentialForward.fog[97].dispatcher droppedJobsSLA 158079
scalar FogSequentialForward.fog[97].dispatcher jobs_class_1 6908698
scalar FogSequentialForward.fog[97].dispatcher remoteJobs_class_1 5466181
scalar FogSequentialForward.fog[97].dispatcher localJobs_class_1 1284438
scalar FogSequentialForward.fog[97].dispatcher droppedJobsSLA_class_1 158079
scalar FogSequentialForward.fog[97].server[0] rho 1
scalar FogSequentialForward.fog[97].server[0] congestionRatio 0
scalar FogSequentialForward.fog[97].server[0] totalJobs 1284438
scalar FogSequentialForward.fog[97].server[0] droppedJobsQueue 17205
scalar FogSequentialForward.fog[97].server[0] droppedJobsTimout 0
scalar FogSequentialForward.fog[97].server[0] droppedJobsSLA 783233
scalar FogSequentialForward.fog[97].server[0] droppedJobsTotal 800438
scalar FogSequentialForward.fog[98].dispatcher localJobs 1286142
scalar FogSequentialForward.fog[98].dispatcher internalJobs 1443825
scalar FogSequentialForward.fog[98].dispatcher externalJobs 5465382
scalar FogSequentialForward.fog[98].dispatcher remoteJobs 5465558
scalar FogSequentialForward.fog[98].dispatcher probeQueries 0
scalar FogSequentialForward.fog[98].dispatcher probeAnswers 0
scalar FogSequentialForward.fog[98].dispatcher droppedJobsSLA 157507
scalar FogSequentialForward.fog[98].dispatcher jobs_class_1 6909207
scalar FogSequentialForward.fog[98].dispatcher remoteJobs_class_1 5465558
scalar FogSequentialForward.fog[98].dispatcher localJobs_class_1 1286142
scalar FogSequentialForward.fog[98].dispatcher droppedJobsSLA_class_1 157507
scalar FogSequentialForward.fog[98].server[0] rho 1
scalar FogSequentialForward.fog[98].server[0] congestionRatio 0
scalar FogSequentialForward.fog[98].server[0] totalJobs 1286142
scalar FogSequentialForward.fog[98].server[0] droppedJobsQueue 17641
scalar FogSequentialForward.fog[98].server[0] droppedJobsTimout 0
scalar FogSequentialForward.fog[98].server[0] droppedJobsSLA 784943
scalar FogSequentialForward.fog[98].server[0] droppedJobsTotal 802584
scalar FogSequentialForward.fog[99].dispatcher localJobs 1285211
scalar FogSequentialForward.fog[99].dispatcher internalJobs 1443207
scalar FogSequentialForward.fog[99].dispatcher externalJobs 5468531
scalar FogSequentialForward.fog[99].dispatcher remoteJobs 5468698
scalar FogSequentialForward.fog[99].dispatcher probeQueries 0
scalar FogSequentialForward.fog[99].dispatcher probeAnswers 0
scalar FogSequentialForward.fog[99].dispatcher droppedJobsSLA 157829
scalar FogSequentialForward.fog[99].dispatcher jobs_class_1 6911738
scalar FogSequentialForward.fog[99].dispatcher remoteJobs_class_1 5468698
scalar FogSequentialForward.fog[99].dispatcher localJobs_class_1 1285211
scalar FogSequentialForward.fog[99].dispatcher droppedJobsSLA_class_1 157829
scalar FogSequentialForward.fog[99].server[0] rho 1
scalar FogSequentialForward.fog[99].server[0] congestionRatio 0
scalar FogSequentialForward.fog[99].server[0] totalJobs 1285211
scalar FogSequentialForward.fog[99].server[0] droppedJobsQueue 17313
scalar FogSequentialForward.fog[99].server[0] droppedJobsTimout 0
scalar FogSequentialForward.fog[99].server[0] droppedJobsSLA 783742
scalar FogSequentialForward.fog[99].server[0] droppedJobsTotal 801055
scalar FogSequentialForward.sink avg_responseTime_1 0.13520555066775
scalar FogSequentialForward.sink p90_responseTime_1 0.016021609736
scalar FogSequentialForward.sink med_responseTime_1 0.016021609736
scalar FogSequentialForward.sink avg_delayTime_1 0
scalar FogSequentialForward.sink p90_delayTime_1 0
scalar FogSequentialForward.sink med_delayTime_1 0
scalar FogSequentialForward.sink avg_queuingTime_1 0.10154525833235
scalar FogSequentialForward.sink p90_queuingTime_1 0
scalar FogSequentialForward.sink med_queuingTime_1 0
scalar FogSequentialForward.sink avg_serviceTime_1 0.016722660268819
scalar FogSequentialForward.sink p90_serviceTime_1 0.014803713638
scalar FogSequentialForward.sink med_serviceTime_1 0.014803713638
scalar FogSequentialForward.sink avg_balancerTime_1 0.01693763206582
scalar FogSequentialForward.sink p90_balancerTime_1 0
scalar FogSequentialForward.sink med_balancerTime_1 0
scalar FogSequentialForward.sink avg_balancerCount_1 2.0142294650661
scalar FogSequentialForward.sink p90_balancerCount_1 1
scalar FogSequentialForward.sink med_balancerCount_1 1

