version 2
run Fog-mul_10-rho_08-thr_12-4-20190714-05:35:33-101848
attr configname Fog-mul_10-rho_08-thr_12
attr datetime 20190714-05:35:33
attr experiment Fog-mul_10-rho_08-thr_12
attr inifile FogSequentialForward.ini
attr iterationvars ""
attr iterationvarsf ""
attr measurement ""
attr network FogSequentialForward
attr processid 101848
attr repetition 4
attr replication #4
attr resultdir results
attr runnumber 4
attr seedset 4
param FogSequentialForward.proctimeMul 1.0
param FogSequentialForward.rho 0.8
param FogSequentialForward.fog[*].dispatcher.thr 12
param FogSequentialForward.nSources 100
param FogSequentialForward.rho 0.9
param FogSequentialForward.proctimeMul 1.0
param FogSequentialForward.source[*].appId 1
param FogSequentialForward.source[*].realTime true
param FogSequentialForward.source[*].multiHop true
param FogSequentialForward.fog[*].nServers 1
param FogSequentialForward.fog[*].dispatcher.fanOut 1
param FogSequentialForward.fog[*].server[*].timeSlice -1s
param FogSequentialForward.fog[*].server[*].timeout -1s
param FogSequentialForward.fog[*].server[*].capacity 20
param FogSequentialForward.fog[*].server[*].fifo true
param FogSequentialForward.fog[*].server[*].maxServiceTime -1s
param FogSequentialForward.fog[*].dispatcher.thr 1

scalar FogSequentialForward.fog[0].dispatcher localJobs 14370
scalar FogSequentialForward.fog[0].dispatcher internalJobs 14549
scalar FogSequentialForward.fog[0].dispatcher externalJobs 2291147
scalar FogSequentialForward.fog[0].dispatcher remoteJobs 2291290
scalar FogSequentialForward.fog[0].dispatcher probeQueries 0
scalar FogSequentialForward.fog[0].dispatcher probeAnswers 0
scalar FogSequentialForward.fog[0].dispatcher droppedJobsSLA 36
scalar FogSequentialForward.fog[0].dispatcher jobs_class_1 2305696
scalar FogSequentialForward.fog[0].dispatcher remoteJobs_class_1 2291290
scalar FogSequentialForward.fog[0].dispatcher localJobs_class_1 14370
scalar FogSequentialForward.fog[0].dispatcher droppedJobsSLA_class_1 36
scalar FogSequentialForward.fog[0].server[0] rho 1
scalar FogSequentialForward.fog[0].server[0] congestionRatio 0
scalar FogSequentialForward.fog[0].server[0] totalJobs 14370
scalar FogSequentialForward.fog[0].server[0] droppedJobsQueue 1163
scalar FogSequentialForward.fog[0].server[0] droppedJobsTimout 0
scalar FogSequentialForward.fog[0].server[0] droppedJobsSLA 8673
scalar FogSequentialForward.fog[0].server[0] droppedJobsTotal 9836
scalar FogSequentialForward.fog[1].dispatcher localJobs 14363
scalar FogSequentialForward.fog[1].dispatcher internalJobs 14500
scalar FogSequentialForward.fog[1].dispatcher externalJobs 2294736
scalar FogSequentialForward.fog[1].dispatcher remoteJobs 2294836
scalar FogSequentialForward.fog[1].dispatcher probeQueries 0
scalar FogSequentialForward.fog[1].dispatcher probeAnswers 0
scalar FogSequentialForward.fog[1].dispatcher droppedJobsSLA 37
scalar FogSequentialForward.fog[1].dispatcher jobs_class_1 2309236
scalar FogSequentialForward.fog[1].dispatcher remoteJobs_class_1 2294836
scalar FogSequentialForward.fog[1].dispatcher localJobs_class_1 14363
scalar FogSequentialForward.fog[1].dispatcher droppedJobsSLA_class_1 37
scalar FogSequentialForward.fog[1].server[0] rho 1
scalar FogSequentialForward.fog[1].server[0] congestionRatio 0
scalar FogSequentialForward.fog[1].server[0] totalJobs 14363
scalar FogSequentialForward.fog[1].server[0] droppedJobsQueue 1161
scalar FogSequentialForward.fog[1].server[0] droppedJobsTimout 0
scalar FogSequentialForward.fog[1].server[0] droppedJobsSLA 8658
scalar FogSequentialForward.fog[1].server[0] droppedJobsTotal 9819
scalar FogSequentialForward.fog[2].dispatcher localJobs 14354
scalar FogSequentialForward.fog[2].dispatcher internalJobs 14339
scalar FogSequentialForward.fog[2].dispatcher externalJobs 2292750
scalar FogSequentialForward.fog[2].dispatcher remoteJobs 2292714
scalar FogSequentialForward.fog[2].dispatcher probeQueries 0
scalar FogSequentialForward.fog[2].dispatcher probeAnswers 0
scalar FogSequentialForward.fog[2].dispatcher droppedJobsSLA 21
scalar FogSequentialForward.fog[2].dispatcher jobs_class_1 2307089
scalar FogSequentialForward.fog[2].dispatcher remoteJobs_class_1 2292714
scalar FogSequentialForward.fog[2].dispatcher localJobs_class_1 14354
scalar FogSequentialForward.fog[2].dispatcher droppedJobsSLA_class_1 21
scalar FogSequentialForward.fog[2].server[0] rho 1
scalar FogSequentialForward.fog[2].server[0] congestionRatio 0
scalar FogSequentialForward.fog[2].server[0] totalJobs 14354
scalar FogSequentialForward.fog[2].server[0] droppedJobsQueue 1162
scalar FogSequentialForward.fog[2].server[0] droppedJobsTimout 0
scalar FogSequentialForward.fog[2].server[0] droppedJobsSLA 8704
scalar FogSequentialForward.fog[2].server[0] droppedJobsTotal 9866
scalar FogSequentialForward.fog[3].dispatcher localJobs 14347
scalar FogSequentialForward.fog[3].dispatcher internalJobs 14331
scalar FogSequentialForward.fog[3].dispatcher externalJobs 2294257
scalar FogSequentialForward.fog[3].dispatcher remoteJobs 2294209
scalar FogSequentialForward.fog[3].dispatcher probeQueries 0
scalar FogSequentialForward.fog[3].dispatcher probeAnswers 0
scalar FogSequentialForward.fog[3].dispatcher droppedJobsSLA 32
scalar FogSequentialForward.fog[3].dispatcher jobs_class_1 2308588
scalar FogSequentialForward.fog[3].dispatcher remoteJobs_class_1 2294209
scalar FogSequentialForward.fog[3].dispatcher localJobs_class_1 14347
scalar FogSequentialForward.fog[3].dispatcher droppedJobsSLA_class_1 32
scalar FogSequentialForward.fog[3].server[0] rho 0.99998015165329
scalar FogSequentialForward.fog[3].server[0] congestionRatio 0
scalar FogSequentialForward.fog[3].server[0] totalJobs 14347
scalar FogSequentialForward.fog[3].server[0] droppedJobsQueue 1163
scalar FogSequentialForward.fog[3].server[0] droppedJobsTimout 0
scalar FogSequentialForward.fog[3].server[0] droppedJobsSLA 8707
scalar FogSequentialForward.fog[3].server[0] droppedJobsTotal 9870
scalar FogSequentialForward.fog[4].dispatcher localJobs 14400
scalar FogSequentialForward.fog[4].dispatcher internalJobs 14313
scalar FogSequentialForward.fog[4].dispatcher externalJobs 2292021
scalar FogSequentialForward.fog[4].dispatcher remoteJobs 2291892
scalar FogSequentialForward.fog[4].dispatcher probeQueries 0
scalar FogSequentialForward.fog[4].dispatcher probeAnswers 0
scalar FogSequentialForward.fog[4].dispatcher droppedJobsSLA 42
scalar FogSequentialForward.fog[4].dispatcher jobs_class_1 2306334
scalar FogSequentialForward.fog[4].dispatcher remoteJobs_class_1 2291892
scalar FogSequentialForward.fog[4].dispatcher localJobs_class_1 14400
scalar FogSequentialForward.fog[4].dispatcher droppedJobsSLA_class_1 42
scalar FogSequentialForward.fog[4].server[0] rho 1
scalar FogSequentialForward.fog[4].server[0] congestionRatio 0
scalar FogSequentialForward.fog[4].server[0] totalJobs 14400
scalar FogSequentialForward.fog[4].server[0] droppedJobsQueue 1166
scalar FogSequentialForward.fog[4].server[0] droppedJobsTimout 0
scalar FogSequentialForward.fog[4].server[0] droppedJobsSLA 8734
scalar FogSequentialForward.fog[4].server[0] droppedJobsTotal 9900
scalar FogSequentialForward.fog[5].dispatcher localJobs 14403
scalar FogSequentialForward.fog[5].dispatcher internalJobs 14262
scalar FogSequentialForward.fog[5].dispatcher externalJobs 2291086
scalar FogSequentialForward.fog[5].dispatcher remoteJobs 2290912
scalar FogSequentialForward.fog[5].dispatcher probeQueries 0
scalar FogSequentialForward.fog[5].dispatcher probeAnswers 0
scalar FogSequentialForward.fog[5].dispatcher droppedJobsSLA 33
scalar FogSequentialForward.fog[5].dispatcher jobs_class_1 2305348
scalar FogSequentialForward.fog[5].dispatcher remoteJobs_class_1 2290912
scalar FogSequentialForward.fog[5].dispatcher localJobs_class_1 14403
scalar FogSequentialForward.fog[5].dispatcher droppedJobsSLA_class_1 33
scalar FogSequentialForward.fog[5].server[0] rho 0.99999272823334
scalar FogSequentialForward.fog[5].server[0] congestionRatio 0
scalar FogSequentialForward.fog[5].server[0] totalJobs 14403
scalar FogSequentialForward.fog[5].server[0] droppedJobsQueue 1164
scalar FogSequentialForward.fog[5].server[0] droppedJobsTimout 0
scalar FogSequentialForward.fog[5].server[0] droppedJobsSLA 8753
scalar FogSequentialForward.fog[5].server[0] droppedJobsTotal 9917
scalar FogSequentialForward.fog[6].dispatcher localJobs 14364
scalar FogSequentialForward.fog[6].dispatcher internalJobs 14357
scalar FogSequentialForward.fog[6].dispatcher externalJobs 2294433
scalar FogSequentialForward.fog[6].dispatcher remoteJobs 2294394
scalar FogSequentialForward.fog[6].dispatcher probeQueries 0
scalar FogSequentialForward.fog[6].dispatcher probeAnswers 0
scalar FogSequentialForward.fog[6].dispatcher droppedJobsSLA 32
scalar FogSequentialForward.fog[6].dispatcher jobs_class_1 2308790
scalar FogSequentialForward.fog[6].dispatcher remoteJobs_class_1 2294394
scalar FogSequentialForward.fog[6].dispatcher localJobs_class_1 14364
scalar FogSequentialForward.fog[6].dispatcher droppedJobsSLA_class_1 32
scalar FogSequentialForward.fog[6].server[0] rho 1
scalar FogSequentialForward.fog[6].server[0] congestionRatio 0
scalar FogSequentialForward.fog[6].server[0] totalJobs 14364
scalar FogSequentialForward.fog[6].server[0] droppedJobsQueue 1163
scalar FogSequentialForward.fog[6].server[0] droppedJobsTimout 0
scalar FogSequentialForward.fog[6].server[0] droppedJobsSLA 8731
scalar FogSequentialForward.fog[6].server[0] droppedJobsTotal 9894
scalar FogSequentialForward.fog[7].dispatcher localJobs 14358
scalar FogSequentialForward.fog[7].dispatcher internalJobs 14345
scalar FogSequentialForward.fog[7].dispatcher externalJobs 2293045
scalar FogSequentialForward.fog[7].dispatcher remoteJobs 2292990
scalar FogSequentialForward.fog[7].dispatcher probeQueries 0
scalar FogSequentialForward.fog[7].dispatcher probeAnswers 0
scalar FogSequentialForward.fog[7].dispatcher droppedJobsSLA 42
scalar FogSequentialForward.fog[7].dispatcher jobs_class_1 2307390
scalar FogSequentialForward.fog[7].dispatcher remoteJobs_class_1 2292990
scalar FogSequentialForward.fog[7].dispatcher localJobs_class_1 14358
scalar FogSequentialForward.fog[7].dispatcher droppedJobsSLA_class_1 42
scalar FogSequentialForward.fog[7].server[0] rho 1
scalar FogSequentialForward.fog[7].server[0] congestionRatio 0
scalar FogSequentialForward.fog[7].server[0] totalJobs 14358
scalar FogSequentialForward.fog[7].server[0] droppedJobsQueue 1165
scalar FogSequentialForward.fog[7].server[0] droppedJobsTimout 0
scalar FogSequentialForward.fog[7].server[0] droppedJobsSLA 8700
scalar FogSequentialForward.fog[7].server[0] droppedJobsTotal 9865
scalar FogSequentialForward.fog[8].dispatcher localJobs 14336
scalar FogSequentialForward.fog[8].dispatcher internalJobs 14652
scalar FogSequentialForward.fog[8].dispatcher externalJobs 2293982
scalar FogSequentialForward.fog[8].dispatcher remoteJobs 2294268
scalar FogSequentialForward.fog[8].dispatcher probeQueries 0
scalar FogSequentialForward.fog[8].dispatcher probeAnswers 0
scalar FogSequentialForward.fog[8].dispatcher droppedJobsSLA 30
scalar FogSequentialForward.fog[8].dispatcher jobs_class_1 2308634
scalar FogSequentialForward.fog[8].dispatcher remoteJobs_class_1 2294268
scalar FogSequentialForward.fog[8].dispatcher localJobs_class_1 14336
scalar FogSequentialForward.fog[8].dispatcher droppedJobsSLA_class_1 30
scalar FogSequentialForward.fog[8].server[0] rho 0.99986630678177
scalar FogSequentialForward.fog[8].server[0] congestionRatio 0
scalar FogSequentialForward.fog[8].server[0] totalJobs 14336
scalar FogSequentialForward.fog[8].server[0] droppedJobsQueue 1161
scalar FogSequentialForward.fog[8].server[0] droppedJobsTimout 0
scalar FogSequentialForward.fog[8].server[0] droppedJobsSLA 8713
scalar FogSequentialForward.fog[8].server[0] droppedJobsTotal 9874
scalar FogSequentialForward.fog[9].dispatcher localJobs 14416
scalar FogSequentialForward.fog[9].dispatcher internalJobs 14358
scalar FogSequentialForward.fog[9].dispatcher externalJobs 2293336
scalar FogSequentialForward.fog[9].dispatcher remoteJobs 2293255
scalar FogSequentialForward.fog[9].dispatcher probeQueries 0
scalar FogSequentialForward.fog[9].dispatcher probeAnswers 0
scalar FogSequentialForward.fog[9].dispatcher droppedJobsSLA 23
scalar FogSequentialForward.fog[9].dispatcher jobs_class_1 2307694
scalar FogSequentialForward.fog[9].dispatcher remoteJobs_class_1 2293255
scalar FogSequentialForward.fog[9].dispatcher localJobs_class_1 14416
scalar FogSequentialForward.fog[9].dispatcher droppedJobsSLA_class_1 23
scalar FogSequentialForward.fog[9].server[0] rho 1
scalar FogSequentialForward.fog[9].server[0] congestionRatio 0
scalar FogSequentialForward.fog[9].server[0] totalJobs 14416
scalar FogSequentialForward.fog[9].server[0] droppedJobsQueue 1165
scalar FogSequentialForward.fog[9].server[0] droppedJobsTimout 0
scalar FogSequentialForward.fog[9].server[0] droppedJobsSLA 8751
scalar FogSequentialForward.fog[9].server[0] droppedJobsTotal 9916
scalar FogSequentialForward.fog[10].dispatcher localJobs 14382
scalar FogSequentialForward.fog[10].dispatcher internalJobs 14354
scalar FogSequentialForward.fog[10].dispatcher externalJobs 2293222
scalar FogSequentialForward.fog[10].dispatcher remoteJobs 2293157
scalar FogSequentialForward.fog[10].dispatcher probeQueries 0
scalar FogSequentialForward.fog[10].dispatcher probeAnswers 0
scalar FogSequentialForward.fog[10].dispatcher droppedJobsSLA 37
scalar FogSequentialForward.fog[10].dispatcher jobs_class_1 2307576
scalar FogSequentialForward.fog[10].dispatcher remoteJobs_class_1 2293157
scalar FogSequentialForward.fog[10].dispatcher localJobs_class_1 14382
scalar FogSequentialForward.fog[10].dispatcher droppedJobsSLA_class_1 37
scalar FogSequentialForward.fog[10].server[0] rho 1
scalar FogSequentialForward.fog[10].server[0] congestionRatio 0
scalar FogSequentialForward.fog[10].server[0] totalJobs 14382
scalar FogSequentialForward.fog[10].server[0] droppedJobsQueue 1166
scalar FogSequentialForward.fog[10].server[0] droppedJobsTimout 0
scalar FogSequentialForward.fog[10].server[0] droppedJobsSLA 8745
scalar FogSequentialForward.fog[10].server[0] droppedJobsTotal 9911
scalar FogSequentialForward.fog[11].dispatcher localJobs 14396
scalar FogSequentialForward.fog[11].dispatcher internalJobs 14465
scalar FogSequentialForward.fog[11].dispatcher externalJobs 2290243
scalar FogSequentialForward.fog[11].dispatcher remoteJobs 2290283
scalar FogSequentialForward.fog[11].dispatcher probeQueries 0
scalar FogSequentialForward.fog[11].dispatcher probeAnswers 0
scalar FogSequentialForward.fog[11].dispatcher droppedJobsSLA 29
scalar FogSequentialForward.fog[11].dispatcher jobs_class_1 2304708
scalar FogSequentialForward.fog[11].dispatcher remoteJobs_class_1 2290283
scalar FogSequentialForward.fog[11].dispatcher localJobs_class_1 14396
scalar FogSequentialForward.fog[11].dispatcher droppedJobsSLA_class_1 29
scalar FogSequentialForward.fog[11].server[0] rho 1
scalar FogSequentialForward.fog[11].server[0] congestionRatio 0
scalar FogSequentialForward.fog[11].server[0] totalJobs 14396
scalar FogSequentialForward.fog[11].server[0] droppedJobsQueue 1163
scalar FogSequentialForward.fog[11].server[0] droppedJobsTimout 0
scalar FogSequentialForward.fog[11].server[0] droppedJobsSLA 8755
scalar FogSequentialForward.fog[11].server[0] droppedJobsTotal 9918
scalar FogSequentialForward.fog[12].dispatcher localJobs 14396
scalar FogSequentialForward.fog[12].dispatcher internalJobs 14433
scalar FogSequentialForward.fog[12].dispatcher externalJobs 2291814
scalar FogSequentialForward.fog[12].dispatcher remoteJobs 2291817
scalar FogSequentialForward.fog[12].dispatcher probeQueries 0
scalar FogSequentialForward.fog[12].dispatcher probeAnswers 0
scalar FogSequentialForward.fog[12].dispatcher droppedJobsSLA 34
scalar FogSequentialForward.fog[12].dispatcher jobs_class_1 2306247
scalar FogSequentialForward.fog[12].dispatcher remoteJobs_class_1 2291817
scalar FogSequentialForward.fog[12].dispatcher localJobs_class_1 14396
scalar FogSequentialForward.fog[12].dispatcher droppedJobsSLA_class_1 34
scalar FogSequentialForward.fog[12].server[0] rho 0.99993652105331
scalar FogSequentialForward.fog[12].server[0] congestionRatio 0
scalar FogSequentialForward.fog[12].server[0] totalJobs 14396
scalar FogSequentialForward.fog[12].server[0] droppedJobsQueue 1161
scalar FogSequentialForward.fog[12].server[0] droppedJobsTimout 0
scalar FogSequentialForward.fog[12].server[0] droppedJobsSLA 8710
scalar FogSequentialForward.fog[12].server[0] droppedJobsTotal 9871
scalar FogSequentialForward.fog[13].dispatcher localJobs 14340
scalar FogSequentialForward.fog[13].dispatcher internalJobs 14460
scalar FogSequentialForward.fog[13].dispatcher externalJobs 2291395
scalar FogSequentialForward.fog[13].dispatcher remoteJobs 2291490
scalar FogSequentialForward.fog[13].dispatcher probeQueries 0
scalar FogSequentialForward.fog[13].dispatcher probeAnswers 0
scalar FogSequentialForward.fog[13].dispatcher droppedJobsSLA 25
scalar FogSequentialForward.fog[13].dispatcher jobs_class_1 2305855
scalar FogSequentialForward.fog[13].dispatcher remoteJobs_class_1 2291490
scalar FogSequentialForward.fog[13].dispatcher localJobs_class_1 14340
scalar FogSequentialForward.fog[13].dispatcher droppedJobsSLA_class_1 25
scalar FogSequentialForward.fog[13].server[0] rho 1
scalar FogSequentialForward.fog[13].server[0] congestionRatio 0
scalar FogSequentialForward.fog[13].server[0] totalJobs 14340
scalar FogSequentialForward.fog[13].server[0] droppedJobsQueue 1158
scalar FogSequentialForward.fog[13].server[0] droppedJobsTimout 0
scalar FogSequentialForward.fog[13].server[0] droppedJobsSLA 8677
scalar FogSequentialForward.fog[13].server[0] droppedJobsTotal 9835
scalar FogSequentialForward.fog[14].dispatcher localJobs 14340
scalar FogSequentialForward.fog[14].dispatcher internalJobs 14345
scalar FogSequentialForward.fog[14].dispatcher externalJobs 2294685
scalar FogSequentialForward.fog[14].dispatcher remoteJobs 2294648
scalar FogSequentialForward.fog[14].dispatcher probeQueries 0
scalar FogSequentialForward.fog[14].dispatcher probeAnswers 0
scalar FogSequentialForward.fog[14].dispatcher droppedJobsSLA 42
scalar FogSequentialForward.fog[14].dispatcher jobs_class_1 2309030
scalar FogSequentialForward.fog[14].dispatcher remoteJobs_class_1 2294648
scalar FogSequentialForward.fog[14].dispatcher localJobs_class_1 14340
scalar FogSequentialForward.fog[14].dispatcher droppedJobsSLA_class_1 42
scalar FogSequentialForward.fog[14].server[0] rho 1
scalar FogSequentialForward.fog[14].server[0] congestionRatio 0
scalar FogSequentialForward.fog[14].server[0] totalJobs 14340
scalar FogSequentialForward.fog[14].server[0] droppedJobsQueue 1161
scalar FogSequentialForward.fog[14].server[0] droppedJobsTimout 0
scalar FogSequentialForward.fog[14].server[0] droppedJobsSLA 8667
scalar FogSequentialForward.fog[14].server[0] droppedJobsTotal 9828
scalar FogSequentialForward.fog[15].dispatcher localJobs 14397
scalar FogSequentialForward.fog[15].dispatcher internalJobs 14376
scalar FogSequentialForward.fog[15].dispatcher externalJobs 2294785
scalar FogSequentialForward.fog[15].dispatcher remoteJobs 2294729
scalar FogSequentialForward.fog[15].dispatcher probeQueries 0
scalar FogSequentialForward.fog[15].dispatcher probeAnswers 0
scalar FogSequentialForward.fog[15].dispatcher droppedJobsSLA 35
scalar FogSequentialForward.fog[15].dispatcher jobs_class_1 2309161
scalar FogSequentialForward.fog[15].dispatcher remoteJobs_class_1 2294729
scalar FogSequentialForward.fog[15].dispatcher localJobs_class_1 14397
scalar FogSequentialForward.fog[15].dispatcher droppedJobsSLA_class_1 35
scalar FogSequentialForward.fog[15].server[0] rho 1
scalar FogSequentialForward.fog[15].server[0] congestionRatio 0
scalar FogSequentialForward.fog[15].server[0] totalJobs 14397
scalar FogSequentialForward.fog[15].server[0] droppedJobsQueue 1168
scalar FogSequentialForward.fog[15].server[0] droppedJobsTimout 0
scalar FogSequentialForward.fog[15].server[0] droppedJobsSLA 8699
scalar FogSequentialForward.fog[15].server[0] droppedJobsTotal 9867
scalar FogSequentialForward.fog[16].dispatcher localJobs 14333
scalar FogSequentialForward.fog[16].dispatcher internalJobs 14277
scalar FogSequentialForward.fog[16].dispatcher externalJobs 2293110
scalar FogSequentialForward.fog[16].dispatcher remoteJobs 2293028
scalar FogSequentialForward.fog[16].dispatcher probeQueries 0
scalar FogSequentialForward.fog[16].dispatcher probeAnswers 0
scalar FogSequentialForward.fog[16].dispatcher droppedJobsSLA 26
scalar FogSequentialForward.fog[16].dispatcher jobs_class_1 2307387
scalar FogSequentialForward.fog[16].dispatcher remoteJobs_class_1 2293028
scalar FogSequentialForward.fog[16].dispatcher localJobs_class_1 14333
scalar FogSequentialForward.fog[16].dispatcher droppedJobsSLA_class_1 26
scalar FogSequentialForward.fog[16].server[0] rho 1
scalar FogSequentialForward.fog[16].server[0] congestionRatio 0
scalar FogSequentialForward.fog[16].server[0] totalJobs 14333
scalar FogSequentialForward.fog[16].server[0] droppedJobsQueue 1159
scalar FogSequentialForward.fog[16].server[0] droppedJobsTimout 0
scalar FogSequentialForward.fog[16].server[0] droppedJobsSLA 8671
scalar FogSequentialForward.fog[16].server[0] droppedJobsTotal 9830
scalar FogSequentialForward.fog[17].dispatcher localJobs 14313
scalar FogSequentialForward.fog[17].dispatcher internalJobs 14499
scalar FogSequentialForward.fog[17].dispatcher externalJobs 2290476
scalar FogSequentialForward.fog[17].dispatcher remoteJobs 2290625
scalar FogSequentialForward.fog[17].dispatcher probeQueries 0
scalar FogSequentialForward.fog[17].dispatcher probeAnswers 0
scalar FogSequentialForward.fog[17].dispatcher droppedJobsSLA 37
scalar FogSequentialForward.fog[17].dispatcher jobs_class_1 2304975
scalar FogSequentialForward.fog[17].dispatcher remoteJobs_class_1 2290625
scalar FogSequentialForward.fog[17].dispatcher localJobs_class_1 14313
scalar FogSequentialForward.fog[17].dispatcher droppedJobsSLA_class_1 37
scalar FogSequentialForward.fog[17].server[0] rho 1
scalar FogSequentialForward.fog[17].server[0] congestionRatio 0
scalar FogSequentialForward.fog[17].server[0] totalJobs 14313
scalar FogSequentialForward.fog[17].server[0] droppedJobsQueue 1157
scalar FogSequentialForward.fog[17].server[0] droppedJobsTimout 0
scalar FogSequentialForward.fog[17].server[0] droppedJobsSLA 8639
scalar FogSequentialForward.fog[17].server[0] droppedJobsTotal 9796
scalar FogSequentialForward.fog[18].dispatcher localJobs 14359
scalar FogSequentialForward.fog[18].dispatcher internalJobs 14675
scalar FogSequentialForward.fog[18].dispatcher externalJobs 2292589
scalar FogSequentialForward.fog[18].dispatcher remoteJobs 2292885
scalar FogSequentialForward.fog[18].dispatcher probeQueries 0
scalar FogSequentialForward.fog[18].dispatcher probeAnswers 0
scalar FogSequentialForward.fog[18].dispatcher droppedJobsSLA 20
scalar FogSequentialForward.fog[18].dispatcher jobs_class_1 2307264
scalar FogSequentialForward.fog[18].dispatcher remoteJobs_class_1 2292885
scalar FogSequentialForward.fog[18].dispatcher localJobs_class_1 14359
scalar FogSequentialForward.fog[18].dispatcher droppedJobsSLA_class_1 20
scalar FogSequentialForward.fog[18].server[0] rho 1
scalar FogSequentialForward.fog[18].server[0] congestionRatio 0
scalar FogSequentialForward.fog[18].server[0] totalJobs 14359
scalar FogSequentialForward.fog[18].server[0] droppedJobsQueue 1163
scalar FogSequentialForward.fog[18].server[0] droppedJobsTimout 0
scalar FogSequentialForward.fog[18].server[0] droppedJobsSLA 8748
scalar FogSequentialForward.fog[18].server[0] droppedJobsTotal 9911
scalar FogSequentialForward.fog[19].dispatcher localJobs 14398
scalar FogSequentialForward.fog[19].dispatcher internalJobs 14503
scalar FogSequentialForward.fog[19].dispatcher externalJobs 2291003
scalar FogSequentialForward.fog[19].dispatcher remoteJobs 2291075
scalar FogSequentialForward.fog[19].dispatcher probeQueries 0
scalar FogSequentialForward.fog[19].dispatcher probeAnswers 0
scalar FogSequentialForward.fog[19].dispatcher droppedJobsSLA 33
scalar FogSequentialForward.fog[19].dispatcher jobs_class_1 2305506
scalar FogSequentialForward.fog[19].dispatcher remoteJobs_class_1 2291075
scalar FogSequentialForward.fog[19].dispatcher localJobs_class_1 14398
scalar FogSequentialForward.fog[19].dispatcher droppedJobsSLA_class_1 33
scalar FogSequentialForward.fog[19].server[0] rho 0.99996960163116
scalar FogSequentialForward.fog[19].server[0] congestionRatio 0
scalar FogSequentialForward.fog[19].server[0] totalJobs 14398
scalar FogSequentialForward.fog[19].server[0] droppedJobsQueue 1162
scalar FogSequentialForward.fog[19].server[0] droppedJobsTimout 0
scalar FogSequentialForward.fog[19].server[0] droppedJobsSLA 8739
scalar FogSequentialForward.fog[19].server[0] droppedJobsTotal 9901
scalar FogSequentialForward.fog[20].dispatcher localJobs 14345
scalar FogSequentialForward.fog[20].dispatcher internalJobs 14524
scalar FogSequentialForward.fog[20].dispatcher externalJobs 2293490
scalar FogSequentialForward.fog[20].dispatcher remoteJobs 2293634
scalar FogSequentialForward.fog[20].dispatcher probeQueries 0
scalar FogSequentialForward.fog[20].dispatcher probeAnswers 0
scalar FogSequentialForward.fog[20].dispatcher droppedJobsSLA 35
scalar FogSequentialForward.fog[20].dispatcher jobs_class_1 2308014
scalar FogSequentialForward.fog[20].dispatcher remoteJobs_class_1 2293634
scalar FogSequentialForward.fog[20].dispatcher localJobs_class_1 14345
scalar FogSequentialForward.fog[20].dispatcher droppedJobsSLA_class_1 35
scalar FogSequentialForward.fog[20].server[0] rho 0.99996519088745
scalar FogSequentialForward.fog[20].server[0] congestionRatio 0
scalar FogSequentialForward.fog[20].server[0] totalJobs 14345
scalar FogSequentialForward.fog[20].server[0] droppedJobsQueue 1160
scalar FogSequentialForward.fog[20].server[0] droppedJobsTimout 0
scalar FogSequentialForward.fog[20].server[0] droppedJobsSLA 8686
scalar FogSequentialForward.fog[20].server[0] droppedJobsTotal 9846
scalar FogSequentialForward.fog[21].dispatcher localJobs 14375
scalar FogSequentialForward.fog[21].dispatcher internalJobs 14433
scalar FogSequentialForward.fog[21].dispatcher externalJobs 2292887
scalar FogSequentialForward.fog[21].dispatcher remoteJobs 2292911
scalar FogSequentialForward.fog[21].dispatcher probeQueries 0
scalar FogSequentialForward.fog[21].dispatcher probeAnswers 0
scalar FogSequentialForward.fog[21].dispatcher droppedJobsSLA 34
scalar FogSequentialForward.fog[21].dispatcher jobs_class_1 2307320
scalar FogSequentialForward.fog[21].dispatcher remoteJobs_class_1 2292911
scalar FogSequentialForward.fog[21].dispatcher localJobs_class_1 14375
scalar FogSequentialForward.fog[21].dispatcher droppedJobsSLA_class_1 34
scalar FogSequentialForward.fog[21].server[0] rho 1
scalar FogSequentialForward.fog[21].server[0] congestionRatio 0
scalar FogSequentialForward.fog[21].server[0] totalJobs 14375
scalar FogSequentialForward.fog[21].server[0] droppedJobsQueue 1164
scalar FogSequentialForward.fog[21].server[0] droppedJobsTimout 0
scalar FogSequentialForward.fog[21].server[0] droppedJobsSLA 8702
scalar FogSequentialForward.fog[21].server[0] droppedJobsTotal 9866
scalar FogSequentialForward.fog[22].dispatcher localJobs 14352
scalar FogSequentialForward.fog[22].dispatcher internalJobs 14410
scalar FogSequentialForward.fog[22].dispatcher externalJobs 2294643
scalar FogSequentialForward.fog[22].dispatcher remoteJobs 2294672
scalar FogSequentialForward.fog[22].dispatcher probeQueries 0
scalar FogSequentialForward.fog[22].dispatcher probeAnswers 0
scalar FogSequentialForward.fog[22].dispatcher droppedJobsSLA 29
scalar FogSequentialForward.fog[22].dispatcher jobs_class_1 2309053
scalar FogSequentialForward.fog[22].dispatcher remoteJobs_class_1 2294672
scalar FogSequentialForward.fog[22].dispatcher localJobs_class_1 14352
scalar FogSequentialForward.fog[22].dispatcher droppedJobsSLA_class_1 29
scalar FogSequentialForward.fog[22].server[0] rho 1
scalar FogSequentialForward.fog[22].server[0] congestionRatio 0
scalar FogSequentialForward.fog[22].server[0] totalJobs 14352
scalar FogSequentialForward.fog[22].server[0] droppedJobsQueue 1163
scalar FogSequentialForward.fog[22].server[0] droppedJobsTimout 0
scalar FogSequentialForward.fog[22].server[0] droppedJobsSLA 8731
scalar FogSequentialForward.fog[22].server[0] droppedJobsTotal 9894
scalar FogSequentialForward.fog[23].dispatcher localJobs 14415
scalar FogSequentialForward.fog[23].dispatcher internalJobs 14354
scalar FogSequentialForward.fog[23].dispatcher externalJobs 2294103
scalar FogSequentialForward.fog[23].dispatcher remoteJobs 2294016
scalar FogSequentialForward.fog[23].dispatcher probeQueries 0
scalar FogSequentialForward.fog[23].dispatcher probeAnswers 0
scalar FogSequentialForward.fog[23].dispatcher droppedJobsSLA 26
scalar FogSequentialForward.fog[23].dispatcher jobs_class_1 2308457
scalar FogSequentialForward.fog[23].dispatcher remoteJobs_class_1 2294016
scalar FogSequentialForward.fog[23].dispatcher localJobs_class_1 14415
scalar FogSequentialForward.fog[23].dispatcher droppedJobsSLA_class_1 26
scalar FogSequentialForward.fog[23].server[0] rho 1
scalar FogSequentialForward.fog[23].server[0] congestionRatio 0
scalar FogSequentialForward.fog[23].server[0] totalJobs 14415
scalar FogSequentialForward.fog[23].server[0] droppedJobsQueue 1167
scalar FogSequentialForward.fog[23].server[0] droppedJobsTimout 0
scalar FogSequentialForward.fog[23].server[0] droppedJobsSLA 8744
scalar FogSequentialForward.fog[23].server[0] droppedJobsTotal 9911
scalar FogSequentialForward.fog[24].dispatcher localJobs 14375
scalar FogSequentialForward.fog[24].dispatcher internalJobs 14486
scalar FogSequentialForward.fog[24].dispatcher externalJobs 2288343
scalar FogSequentialForward.fog[24].dispatcher remoteJobs 2288427
scalar FogSequentialForward.fog[24].dispatcher probeQueries 0
scalar FogSequentialForward.fog[24].dispatcher probeAnswers 0
scalar FogSequentialForward.fog[24].dispatcher droppedJobsSLA 27
scalar FogSequentialForward.fog[24].dispatcher jobs_class_1 2302829
scalar FogSequentialForward.fog[24].dispatcher remoteJobs_class_1 2288427
scalar FogSequentialForward.fog[24].dispatcher localJobs_class_1 14375
scalar FogSequentialForward.fog[24].dispatcher droppedJobsSLA_class_1 27
scalar FogSequentialForward.fog[24].server[0] rho 1
scalar FogSequentialForward.fog[24].server[0] congestionRatio 0
scalar FogSequentialForward.fog[24].server[0] totalJobs 14375
scalar FogSequentialForward.fog[24].server[0] droppedJobsQueue 1160
scalar FogSequentialForward.fog[24].server[0] droppedJobsTimout 0
scalar FogSequentialForward.fog[24].server[0] droppedJobsSLA 8700
scalar FogSequentialForward.fog[24].server[0] droppedJobsTotal 9860
scalar FogSequentialForward.fog[25].dispatcher localJobs 14379
scalar FogSequentialForward.fog[25].dispatcher internalJobs 14509
scalar FogSequentialForward.fog[25].dispatcher externalJobs 2291606
scalar FogSequentialForward.fog[25].dispatcher remoteJobs 2291702
scalar FogSequentialForward.fog[25].dispatcher probeQueries 0
scalar FogSequentialForward.fog[25].dispatcher probeAnswers 0
scalar FogSequentialForward.fog[25].dispatcher droppedJobsSLA 34
scalar FogSequentialForward.fog[25].dispatcher jobs_class_1 2306115
scalar FogSequentialForward.fog[25].dispatcher remoteJobs_class_1 2291702
scalar FogSequentialForward.fog[25].dispatcher localJobs_class_1 14379
scalar FogSequentialForward.fog[25].dispatcher droppedJobsSLA_class_1 34
scalar FogSequentialForward.fog[25].server[0] rho 1
scalar FogSequentialForward.fog[25].server[0] congestionRatio 0
scalar FogSequentialForward.fog[25].server[0] totalJobs 14379
scalar FogSequentialForward.fog[25].server[0] droppedJobsQueue 1164
scalar FogSequentialForward.fog[25].server[0] droppedJobsTimout 0
scalar FogSequentialForward.fog[25].server[0] droppedJobsSLA 8714
scalar FogSequentialForward.fog[25].server[0] droppedJobsTotal 9878
scalar FogSequentialForward.fog[26].dispatcher localJobs 14390
scalar FogSequentialForward.fog[26].dispatcher internalJobs 14567
scalar FogSequentialForward.fog[26].dispatcher externalJobs 2293252
scalar FogSequentialForward.fog[26].dispatcher remoteJobs 2293400
scalar FogSequentialForward.fog[26].dispatcher probeQueries 0
scalar FogSequentialForward.fog[26].dispatcher probeAnswers 0
scalar FogSequentialForward.fog[26].dispatcher droppedJobsSLA 29
scalar FogSequentialForward.fog[26].dispatcher jobs_class_1 2307819
scalar FogSequentialForward.fog[26].dispatcher remoteJobs_class_1 2293400
scalar FogSequentialForward.fog[26].dispatcher localJobs_class_1 14390
scalar FogSequentialForward.fog[26].dispatcher droppedJobsSLA_class_1 29
scalar FogSequentialForward.fog[26].server[0] rho 1
scalar FogSequentialForward.fog[26].server[0] congestionRatio 0
scalar FogSequentialForward.fog[26].server[0] totalJobs 14390
scalar FogSequentialForward.fog[26].server[0] droppedJobsQueue 1167
scalar FogSequentialForward.fog[26].server[0] droppedJobsTimout 0
scalar FogSequentialForward.fog[26].server[0] droppedJobsSLA 8692
scalar FogSequentialForward.fog[26].server[0] droppedJobsTotal 9859
scalar FogSequentialForward.fog[27].dispatcher localJobs 14365
scalar FogSequentialForward.fog[27].dispatcher internalJobs 14379
scalar FogSequentialForward.fog[27].dispatcher externalJobs 2293431
scalar FogSequentialForward.fog[27].dispatcher remoteJobs 2293419
scalar FogSequentialForward.fog[27].dispatcher probeQueries 0
scalar FogSequentialForward.fog[27].dispatcher probeAnswers 0
scalar FogSequentialForward.fog[27].dispatcher droppedJobsSLA 26
scalar FogSequentialForward.fog[27].dispatcher jobs_class_1 2307810
scalar FogSequentialForward.fog[27].dispatcher remoteJobs_class_1 2293419
scalar FogSequentialForward.fog[27].dispatcher localJobs_class_1 14365
scalar FogSequentialForward.fog[27].dispatcher droppedJobsSLA_class_1 26
scalar FogSequentialForward.fog[27].server[0] rho 1
scalar FogSequentialForward.fog[27].server[0] congestionRatio 0
scalar FogSequentialForward.fog[27].server[0] totalJobs 14365
scalar FogSequentialForward.fog[27].server[0] droppedJobsQueue 1162
scalar FogSequentialForward.fog[27].server[0] droppedJobsTimout 0
scalar FogSequentialForward.fog[27].server[0] droppedJobsSLA 8710
scalar FogSequentialForward.fog[27].server[0] droppedJobsTotal 9872
scalar FogSequentialForward.fog[28].dispatcher localJobs 14337
scalar FogSequentialForward.fog[28].dispatcher internalJobs 14446
scalar FogSequentialForward.fog[28].dispatcher externalJobs 2294579
scalar FogSequentialForward.fog[28].dispatcher remoteJobs 2294655
scalar FogSequentialForward.fog[28].dispatcher probeQueries 0
scalar FogSequentialForward.fog[28].dispatcher probeAnswers 0
scalar FogSequentialForward.fog[28].dispatcher droppedJobsSLA 33
scalar FogSequentialForward.fog[28].dispatcher jobs_class_1 2309025
scalar FogSequentialForward.fog[28].dispatcher remoteJobs_class_1 2294655
scalar FogSequentialForward.fog[28].dispatcher localJobs_class_1 14337
scalar FogSequentialForward.fog[28].dispatcher droppedJobsSLA_class_1 33
scalar FogSequentialForward.fog[28].server[0] rho 1
scalar FogSequentialForward.fog[28].server[0] congestionRatio 0
scalar FogSequentialForward.fog[28].server[0] totalJobs 14337
scalar FogSequentialForward.fog[28].server[0] droppedJobsQueue 1160
scalar FogSequentialForward.fog[28].server[0] droppedJobsTimout 0
scalar FogSequentialForward.fog[28].server[0] droppedJobsSLA 8720
scalar FogSequentialForward.fog[28].server[0] droppedJobsTotal 9880
scalar FogSequentialForward.fog[29].dispatcher localJobs 14385
scalar FogSequentialForward.fog[29].dispatcher internalJobs 14274
scalar FogSequentialForward.fog[29].dispatcher externalJobs 2289910
scalar FogSequentialForward.fog[29].dispatcher remoteJobs 2289766
scalar FogSequentialForward.fog[29].dispatcher probeQueries 0
scalar FogSequentialForward.fog[29].dispatcher probeAnswers 0
scalar FogSequentialForward.fog[29].dispatcher droppedJobsSLA 33
scalar FogSequentialForward.fog[29].dispatcher jobs_class_1 2304184
scalar FogSequentialForward.fog[29].dispatcher remoteJobs_class_1 2289766
scalar FogSequentialForward.fog[29].dispatcher localJobs_class_1 14385
scalar FogSequentialForward.fog[29].dispatcher droppedJobsSLA_class_1 33
scalar FogSequentialForward.fog[29].server[0] rho 1
scalar FogSequentialForward.fog[29].server[0] congestionRatio 0
scalar FogSequentialForward.fog[29].server[0] totalJobs 14385
scalar FogSequentialForward.fog[29].server[0] droppedJobsQueue 1165
scalar FogSequentialForward.fog[29].server[0] droppedJobsTimout 0
scalar FogSequentialForward.fog[29].server[0] droppedJobsSLA 8714
scalar FogSequentialForward.fog[29].server[0] droppedJobsTotal 9879
scalar FogSequentialForward.fog[30].dispatcher localJobs 14348
scalar FogSequentialForward.fog[30].dispatcher internalJobs 14632
scalar FogSequentialForward.fog[30].dispatcher externalJobs 2292934
scalar FogSequentialForward.fog[30].dispatcher remoteJobs 2293183
scalar FogSequentialForward.fog[30].dispatcher probeQueries 0
scalar FogSequentialForward.fog[30].dispatcher probeAnswers 0
scalar FogSequentialForward.fog[30].dispatcher droppedJobsSLA 35
scalar FogSequentialForward.fog[30].dispatcher jobs_class_1 2307566
scalar FogSequentialForward.fog[30].dispatcher remoteJobs_class_1 2293183
scalar FogSequentialForward.fog[30].dispatcher localJobs_class_1 14348
scalar FogSequentialForward.fog[30].dispatcher droppedJobsSLA_class_1 35
scalar FogSequentialForward.fog[30].server[0] rho 1
scalar FogSequentialForward.fog[30].server[0] congestionRatio 0
scalar FogSequentialForward.fog[30].server[0] totalJobs 14348
scalar FogSequentialForward.fog[30].server[0] droppedJobsQueue 1162
scalar FogSequentialForward.fog[30].server[0] droppedJobsTimout 0
scalar FogSequentialForward.fog[30].server[0] droppedJobsSLA 8668
scalar FogSequentialForward.fog[30].server[0] droppedJobsTotal 9830
scalar FogSequentialForward.fog[31].dispatcher localJobs 14344
scalar FogSequentialForward.fog[31].dispatcher internalJobs 14463
scalar FogSequentialForward.fog[31].dispatcher externalJobs 2293817
scalar FogSequentialForward.fog[31].dispatcher remoteJobs 2293898
scalar FogSequentialForward.fog[31].dispatcher probeQueries 0
scalar FogSequentialForward.fog[31].dispatcher probeAnswers 0
scalar FogSequentialForward.fog[31].dispatcher droppedJobsSLA 38
scalar FogSequentialForward.fog[31].dispatcher jobs_class_1 2308280
scalar FogSequentialForward.fog[31].dispatcher remoteJobs_class_1 2293898
scalar FogSequentialForward.fog[31].dispatcher localJobs_class_1 14344
scalar FogSequentialForward.fog[31].dispatcher droppedJobsSLA_class_1 38
scalar FogSequentialForward.fog[31].server[0] rho 1
scalar FogSequentialForward.fog[31].server[0] congestionRatio 0
scalar FogSequentialForward.fog[31].server[0] totalJobs 14344
scalar FogSequentialForward.fog[31].server[0] droppedJobsQueue 1160
scalar FogSequentialForward.fog[31].server[0] droppedJobsTimout 0
scalar FogSequentialForward.fog[31].server[0] droppedJobsSLA 8710
scalar FogSequentialForward.fog[31].server[0] droppedJobsTotal 9870
scalar FogSequentialForward.fog[32].dispatcher localJobs 14383
scalar FogSequentialForward.fog[32].dispatcher internalJobs 14590
scalar FogSequentialForward.fog[32].dispatcher externalJobs 2291363
scalar FogSequentialForward.fog[32].dispatcher remoteJobs 2291541
scalar FogSequentialForward.fog[32].dispatcher probeQueries 0
scalar FogSequentialForward.fog[32].dispatcher probeAnswers 0
scalar FogSequentialForward.fog[32].dispatcher droppedJobsSLA 29
scalar FogSequentialForward.fog[32].dispatcher jobs_class_1 2305953
scalar FogSequentialForward.fog[32].dispatcher remoteJobs_class_1 2291541
scalar FogSequentialForward.fog[32].dispatcher localJobs_class_1 14383
scalar FogSequentialForward.fog[32].dispatcher droppedJobsSLA_class_1 29
scalar FogSequentialForward.fog[32].server[0] rho 1
scalar FogSequentialForward.fog[32].server[0] congestionRatio 0
scalar FogSequentialForward.fog[32].server[0] totalJobs 14383
scalar FogSequentialForward.fog[32].server[0] droppedJobsQueue 1166
scalar FogSequentialForward.fog[32].server[0] droppedJobsTimout 0
scalar FogSequentialForward.fog[32].server[0] droppedJobsSLA 8674
scalar FogSequentialForward.fog[32].server[0] droppedJobsTotal 9840
scalar FogSequentialForward.fog[33].dispatcher localJobs 14331
scalar FogSequentialForward.fog[33].dispatcher internalJobs 14195
scalar FogSequentialForward.fog[33].dispatcher externalJobs 2292274
scalar FogSequentialForward.fog[33].dispatcher remoteJobs 2292108
scalar FogSequentialForward.fog[33].dispatcher probeQueries 0
scalar FogSequentialForward.fog[33].dispatcher probeAnswers 0
scalar FogSequentialForward.fog[33].dispatcher droppedJobsSLA 30
scalar FogSequentialForward.fog[33].dispatcher jobs_class_1 2306469
scalar FogSequentialForward.fog[33].dispatcher remoteJobs_class_1 2292108
scalar FogSequentialForward.fog[33].dispatcher localJobs_class_1 14331
scalar FogSequentialForward.fog[33].dispatcher droppedJobsSLA_class_1 30
scalar FogSequentialForward.fog[33].server[0] rho 0.99997174739838
scalar FogSequentialForward.fog[33].server[0] congestionRatio 0
scalar FogSequentialForward.fog[33].server[0] totalJobs 14331
scalar FogSequentialForward.fog[33].server[0] droppedJobsQueue 1158
scalar FogSequentialForward.fog[33].server[0] droppedJobsTimout 0
scalar FogSequentialForward.fog[33].server[0] droppedJobsSLA 8712
scalar FogSequentialForward.fog[33].server[0] droppedJobsTotal 9870
scalar FogSequentialForward.fog[34].dispatcher localJobs 14365
scalar FogSequentialForward.fog[34].dispatcher internalJobs 14407
scalar FogSequentialForward.fog[34].dispatcher externalJobs 2292677
scalar FogSequentialForward.fog[34].dispatcher remoteJobs 2292690
scalar FogSequentialForward.fog[34].dispatcher probeQueries 0
scalar FogSequentialForward.fog[34].dispatcher probeAnswers 0
scalar FogSequentialForward.fog[34].dispatcher droppedJobsSLA 29
scalar FogSequentialForward.fog[34].dispatcher jobs_class_1 2307084
scalar FogSequentialForward.fog[34].dispatcher remoteJobs_class_1 2292690
scalar FogSequentialForward.fog[34].dispatcher localJobs_class_1 14365
scalar FogSequentialForward.fog[34].dispatcher droppedJobsSLA_class_1 29
scalar FogSequentialForward.fog[34].server[0] rho 1
scalar FogSequentialForward.fog[34].server[0] congestionRatio 0
scalar FogSequentialForward.fog[34].server[0] totalJobs 14365
scalar FogSequentialForward.fog[34].server[0] droppedJobsQueue 1163
scalar FogSequentialForward.fog[34].server[0] droppedJobsTimout 0
scalar FogSequentialForward.fog[34].server[0] droppedJobsSLA 8741
scalar FogSequentialForward.fog[34].server[0] droppedJobsTotal 9904
scalar FogSequentialForward.fog[35].dispatcher localJobs 14370
scalar FogSequentialForward.fog[35].dispatcher internalJobs 14365
scalar FogSequentialForward.fog[35].dispatcher externalJobs 2293219
scalar FogSequentialForward.fog[35].dispatcher remoteJobs 2293185
scalar FogSequentialForward.fog[35].dispatcher probeQueries 0
scalar FogSequentialForward.fog[35].dispatcher probeAnswers 0
scalar FogSequentialForward.fog[35].dispatcher droppedJobsSLA 29
scalar FogSequentialForward.fog[35].dispatcher jobs_class_1 2307584
scalar FogSequentialForward.fog[35].dispatcher remoteJobs_class_1 2293185
scalar FogSequentialForward.fog[35].dispatcher localJobs_class_1 14370
scalar FogSequentialForward.fog[35].dispatcher droppedJobsSLA_class_1 29
scalar FogSequentialForward.fog[35].server[0] rho 1
scalar FogSequentialForward.fog[35].server[0] congestionRatio 0
scalar FogSequentialForward.fog[35].server[0] totalJobs 14370
scalar FogSequentialForward.fog[35].server[0] droppedJobsQueue 1161
scalar FogSequentialForward.fog[35].server[0] droppedJobsTimout 0
scalar FogSequentialForward.fog[35].server[0] droppedJobsSLA 8697
scalar FogSequentialForward.fog[35].server[0] droppedJobsTotal 9858
scalar FogSequentialForward.fog[36].dispatcher localJobs 14372
scalar FogSequentialForward.fog[36].dispatcher internalJobs 14368
scalar FogSequentialForward.fog[36].dispatcher externalJobs 2290872
scalar FogSequentialForward.fog[36].dispatcher remoteJobs 2290834
scalar FogSequentialForward.fog[36].dispatcher probeQueries 0
scalar FogSequentialForward.fog[36].dispatcher probeAnswers 0
scalar FogSequentialForward.fog[36].dispatcher droppedJobsSLA 34
scalar FogSequentialForward.fog[36].dispatcher jobs_class_1 2305240
scalar FogSequentialForward.fog[36].dispatcher remoteJobs_class_1 2290834
scalar FogSequentialForward.fog[36].dispatcher localJobs_class_1 14372
scalar FogSequentialForward.fog[36].dispatcher droppedJobsSLA_class_1 34
scalar FogSequentialForward.fog[36].server[0] rho 1
scalar FogSequentialForward.fog[36].server[0] congestionRatio 0
scalar FogSequentialForward.fog[36].server[0] totalJobs 14372
scalar FogSequentialForward.fog[36].server[0] droppedJobsQueue 1161
scalar FogSequentialForward.fog[36].server[0] droppedJobsTimout 0
scalar FogSequentialForward.fog[36].server[0] droppedJobsSLA 8714
scalar FogSequentialForward.fog[36].server[0] droppedJobsTotal 9875
scalar FogSequentialForward.fog[37].dispatcher localJobs 14361
scalar FogSequentialForward.fog[37].dispatcher internalJobs 14426
scalar FogSequentialForward.fog[37].dispatcher externalJobs 2292593
scalar FogSequentialForward.fog[37].dispatcher remoteJobs 2292629
scalar FogSequentialForward.fog[37].dispatcher probeQueries 0
scalar FogSequentialForward.fog[37].dispatcher probeAnswers 0
scalar FogSequentialForward.fog[37].dispatcher droppedJobsSLA 29
scalar FogSequentialForward.fog[37].dispatcher jobs_class_1 2307019
scalar FogSequentialForward.fog[37].dispatcher remoteJobs_class_1 2292629
scalar FogSequentialForward.fog[37].dispatcher localJobs_class_1 14361
scalar FogSequentialForward.fog[37].dispatcher droppedJobsSLA_class_1 29
scalar FogSequentialForward.fog[37].server[0] rho 0.99995535612106
scalar FogSequentialForward.fog[37].server[0] congestionRatio 0
scalar FogSequentialForward.fog[37].server[0] totalJobs 14361
scalar FogSequentialForward.fog[37].server[0] droppedJobsQueue 1163
scalar FogSequentialForward.fog[37].server[0] droppedJobsTimout 0
scalar FogSequentialForward.fog[37].server[0] droppedJobsSLA 8718
scalar FogSequentialForward.fog[37].server[0] droppedJobsTotal 9881
scalar FogSequentialForward.fog[38].dispatcher localJobs 14379
scalar FogSequentialForward.fog[38].dispatcher internalJobs 14318
scalar FogSequentialForward.fog[38].dispatcher externalJobs 2291855
scalar FogSequentialForward.fog[38].dispatcher remoteJobs 2291768
scalar FogSequentialForward.fog[38].dispatcher probeQueries 0
scalar FogSequentialForward.fog[38].dispatcher probeAnswers 0
scalar FogSequentialForward.fog[38].dispatcher droppedJobsSLA 26
scalar FogSequentialForward.fog[38].dispatcher jobs_class_1 2306173
scalar FogSequentialForward.fog[38].dispatcher remoteJobs_class_1 2291768
scalar FogSequentialForward.fog[38].dispatcher localJobs_class_1 14379
scalar FogSequentialForward.fog[38].dispatcher droppedJobsSLA_class_1 26
scalar FogSequentialForward.fog[38].server[0] rho 1
scalar FogSequentialForward.fog[38].server[0] congestionRatio 0
scalar FogSequentialForward.fog[38].server[0] totalJobs 14379
scalar FogSequentialForward.fog[38].server[0] droppedJobsQueue 1162
scalar FogSequentialForward.fog[38].server[0] droppedJobsTimout 0
scalar FogSequentialForward.fog[38].server[0] droppedJobsSLA 8674
scalar FogSequentialForward.fog[38].server[0] droppedJobsTotal 9836
scalar FogSequentialForward.fog[39].dispatcher localJobs 14321
scalar FogSequentialForward.fog[39].dispatcher internalJobs 14166
scalar FogSequentialForward.fog[39].dispatcher externalJobs 2291515
scalar FogSequentialForward.fog[39].dispatcher remoteJobs 2291316
scalar FogSequentialForward.fog[39].dispatcher probeQueries 0
scalar FogSequentialForward.fog[39].dispatcher probeAnswers 0
scalar FogSequentialForward.fog[39].dispatcher droppedJobsSLA 44
scalar FogSequentialForward.fog[39].dispatcher jobs_class_1 2305681
scalar FogSequentialForward.fog[39].dispatcher remoteJobs_class_1 2291316
scalar FogSequentialForward.fog[39].dispatcher localJobs_class_1 14321
scalar FogSequentialForward.fog[39].dispatcher droppedJobsSLA_class_1 44
scalar FogSequentialForward.fog[39].server[0] rho 1
scalar FogSequentialForward.fog[39].server[0] congestionRatio 0
scalar FogSequentialForward.fog[39].server[0] totalJobs 14321
scalar FogSequentialForward.fog[39].server[0] droppedJobsQueue 1158
scalar FogSequentialForward.fog[39].server[0] droppedJobsTimout 0
scalar FogSequentialForward.fog[39].server[0] droppedJobsSLA 8648
scalar FogSequentialForward.fog[39].server[0] droppedJobsTotal 9806
scalar FogSequentialForward.fog[40].dispatcher localJobs 14345
scalar FogSequentialForward.fog[40].dispatcher internalJobs 14237
scalar FogSequentialForward.fog[40].dispatcher externalJobs 2295367
scalar FogSequentialForward.fog[40].dispatcher remoteJobs 2295229
scalar FogSequentialForward.fog[40].dispatcher probeQueries 0
scalar FogSequentialForward.fog[40].dispatcher probeAnswers 0
scalar FogSequentialForward.fog[40].dispatcher droppedJobsSLA 30
scalar FogSequentialForward.fog[40].dispatcher jobs_class_1 2309604
scalar FogSequentialForward.fog[40].dispatcher remoteJobs_class_1 2295229
scalar FogSequentialForward.fog[40].dispatcher localJobs_class_1 14345
scalar FogSequentialForward.fog[40].dispatcher droppedJobsSLA_class_1 30
scalar FogSequentialForward.fog[40].server[0] rho 1
scalar FogSequentialForward.fog[40].server[0] congestionRatio 0
scalar FogSequentialForward.fog[40].server[0] totalJobs 14345
scalar FogSequentialForward.fog[40].server[0] droppedJobsQueue 1160
scalar FogSequentialForward.fog[40].server[0] droppedJobsTimout 0
scalar FogSequentialForward.fog[40].server[0] droppedJobsSLA 8756
scalar FogSequentialForward.fog[40].server[0] droppedJobsTotal 9916
scalar FogSequentialForward.fog[41].dispatcher localJobs 14384
scalar FogSequentialForward.fog[41].dispatcher internalJobs 14522
scalar FogSequentialForward.fog[41].dispatcher externalJobs 2289191
scalar FogSequentialForward.fog[41].dispatcher remoteJobs 2289310
scalar FogSequentialForward.fog[41].dispatcher probeQueries 0
scalar FogSequentialForward.fog[41].dispatcher probeAnswers 0
scalar FogSequentialForward.fog[41].dispatcher droppedJobsSLA 19
scalar FogSequentialForward.fog[41].dispatcher jobs_class_1 2303713
scalar FogSequentialForward.fog[41].dispatcher remoteJobs_class_1 2289310
scalar FogSequentialForward.fog[41].dispatcher localJobs_class_1 14384
scalar FogSequentialForward.fog[41].dispatcher droppedJobsSLA_class_1 19
scalar FogSequentialForward.fog[41].server[0] rho 1
scalar FogSequentialForward.fog[41].server[0] congestionRatio 0
scalar FogSequentialForward.fog[41].server[0] totalJobs 14384
scalar FogSequentialForward.fog[41].server[0] droppedJobsQueue 1163
scalar FogSequentialForward.fog[41].server[0] droppedJobsTimout 0
scalar FogSequentialForward.fog[41].server[0] droppedJobsSLA 8795
scalar FogSequentialForward.fog[41].server[0] droppedJobsTotal 9958
scalar FogSequentialForward.fog[42].dispatcher localJobs 14361
scalar FogSequentialForward.fog[42].dispatcher internalJobs 14198
scalar FogSequentialForward.fog[42].dispatcher externalJobs 2292977
scalar FogSequentialForward.fog[42].dispatcher remoteJobs 2292783
scalar FogSequentialForward.fog[42].dispatcher probeQueries 0
scalar FogSequentialForward.fog[42].dispatcher probeAnswers 0
scalar FogSequentialForward.fog[42].dispatcher droppedJobsSLA 31
scalar FogSequentialForward.fog[42].dispatcher jobs_class_1 2307175
scalar FogSequentialForward.fog[42].dispatcher remoteJobs_class_1 2292783
scalar FogSequentialForward.fog[42].dispatcher localJobs_class_1 14361
scalar FogSequentialForward.fog[42].dispatcher droppedJobsSLA_class_1 31
scalar FogSequentialForward.fog[42].server[0] rho 0.99999976158142
scalar FogSequentialForward.fog[42].server[0] congestionRatio 0
scalar FogSequentialForward.fog[42].server[0] totalJobs 14361
scalar FogSequentialForward.fog[42].server[0] droppedJobsQueue 1160
scalar FogSequentialForward.fog[42].server[0] droppedJobsTimout 0
scalar FogSequentialForward.fog[42].server[0] droppedJobsSLA 8726
scalar FogSequentialForward.fog[42].server[0] droppedJobsTotal 9886
scalar FogSequentialForward.fog[43].dispatcher localJobs 14397
scalar FogSequentialForward.fog[43].dispatcher internalJobs 14336
scalar FogSequentialForward.fog[43].dispatcher externalJobs 2292299
scalar FogSequentialForward.fog[43].dispatcher remoteJobs 2292213
scalar FogSequentialForward.fog[43].dispatcher probeQueries 0
scalar FogSequentialForward.fog[43].dispatcher probeAnswers 0
scalar FogSequentialForward.fog[43].dispatcher droppedJobsSLA 25
scalar FogSequentialForward.fog[43].dispatcher jobs_class_1 2306635
scalar FogSequentialForward.fog[43].dispatcher remoteJobs_class_1 2292213
scalar FogSequentialForward.fog[43].dispatcher localJobs_class_1 14397
scalar FogSequentialForward.fog[43].dispatcher droppedJobsSLA_class_1 25
scalar FogSequentialForward.fog[43].server[0] rho 1
scalar FogSequentialForward.fog[43].server[0] congestionRatio 0
scalar FogSequentialForward.fog[43].server[0] totalJobs 14397
scalar FogSequentialForward.fog[43].server[0] droppedJobsQueue 1167
scalar FogSequentialForward.fog[43].server[0] droppedJobsTimout 0
scalar FogSequentialForward.fog[43].server[0] droppedJobsSLA 8772
scalar FogSequentialForward.fog[43].server[0] droppedJobsTotal 9939
scalar FogSequentialForward.fog[44].dispatcher localJobs 14343
scalar FogSequentialForward.fog[44].dispatcher internalJobs 14371
scalar FogSequentialForward.fog[44].dispatcher externalJobs 2293455
scalar FogSequentialForward.fog[44].dispatcher remoteJobs 2293454
scalar FogSequentialForward.fog[44].dispatcher probeQueries 0
scalar FogSequentialForward.fog[44].dispatcher probeAnswers 0
scalar FogSequentialForward.fog[44].dispatcher droppedJobsSLA 29
scalar FogSequentialForward.fog[44].dispatcher jobs_class_1 2307826
scalar FogSequentialForward.fog[44].dispatcher remoteJobs_class_1 2293454
scalar FogSequentialForward.fog[44].dispatcher localJobs_class_1 14343
scalar FogSequentialForward.fog[44].dispatcher droppedJobsSLA_class_1 29
scalar FogSequentialForward.fog[44].server[0] rho 1
scalar FogSequentialForward.fog[44].server[0] congestionRatio 0
scalar FogSequentialForward.fog[44].server[0] totalJobs 14343
scalar FogSequentialForward.fog[44].server[0] droppedJobsQueue 1161
scalar FogSequentialForward.fog[44].server[0] droppedJobsTimout 0
scalar FogSequentialForward.fog[44].server[0] droppedJobsSLA 8662
scalar FogSequentialForward.fog[44].server[0] droppedJobsTotal 9823
scalar FogSequentialForward.fog[45].dispatcher localJobs 14356
scalar FogSequentialForward.fog[45].dispatcher internalJobs 14502
scalar FogSequentialForward.fog[45].dispatcher externalJobs 2293300
scalar FogSequentialForward.fog[45].dispatcher remoteJobs 2293414
scalar FogSequentialForward.fog[45].dispatcher probeQueries 0
scalar FogSequentialForward.fog[45].dispatcher probeAnswers 0
scalar FogSequentialForward.fog[45].dispatcher droppedJobsSLA 32
scalar FogSequentialForward.fog[45].dispatcher jobs_class_1 2307802
scalar FogSequentialForward.fog[45].dispatcher remoteJobs_class_1 2293414
scalar FogSequentialForward.fog[45].dispatcher localJobs_class_1 14356
scalar FogSequentialForward.fog[45].dispatcher droppedJobsSLA_class_1 32
scalar FogSequentialForward.fog[45].server[0] rho 1
scalar FogSequentialForward.fog[45].server[0] congestionRatio 0
scalar FogSequentialForward.fog[45].server[0] totalJobs 14356
scalar FogSequentialForward.fog[45].server[0] droppedJobsQueue 1162
scalar FogSequentialForward.fog[45].server[0] droppedJobsTimout 0
scalar FogSequentialForward.fog[45].server[0] droppedJobsSLA 8744
scalar FogSequentialForward.fog[45].server[0] droppedJobsTotal 9906
scalar FogSequentialForward.fog[46].dispatcher localJobs 14394
scalar FogSequentialForward.fog[46].dispatcher internalJobs 14329
scalar FogSequentialForward.fog[46].dispatcher externalJobs 2292660
scalar FogSequentialForward.fog[46].dispatcher remoteJobs 2292551
scalar FogSequentialForward.fog[46].dispatcher probeQueries 0
scalar FogSequentialForward.fog[46].dispatcher probeAnswers 0
scalar FogSequentialForward.fog[46].dispatcher droppedJobsSLA 44
scalar FogSequentialForward.fog[46].dispatcher jobs_class_1 2306989
scalar FogSequentialForward.fog[46].dispatcher remoteJobs_class_1 2292551
scalar FogSequentialForward.fog[46].dispatcher localJobs_class_1 14394
scalar FogSequentialForward.fog[46].dispatcher droppedJobsSLA_class_1 44
scalar FogSequentialForward.fog[46].server[0] rho 1
scalar FogSequentialForward.fog[46].server[0] congestionRatio 0
scalar FogSequentialForward.fog[46].server[0] totalJobs 14394
scalar FogSequentialForward.fog[46].server[0] droppedJobsQueue 1169
scalar FogSequentialForward.fog[46].server[0] droppedJobsTimout 0
scalar FogSequentialForward.fog[46].server[0] droppedJobsSLA 8695
scalar FogSequentialForward.fog[46].server[0] droppedJobsTotal 9864
scalar FogSequentialForward.fog[47].dispatcher localJobs 14423
scalar FogSequentialForward.fog[47].dispatcher internalJobs 14226
scalar FogSequentialForward.fog[47].dispatcher externalJobs 2291422
scalar FogSequentialForward.fog[47].dispatcher remoteJobs 2291191
scalar FogSequentialForward.fog[47].dispatcher probeQueries 0
scalar FogSequentialForward.fog[47].dispatcher probeAnswers 0
scalar FogSequentialForward.fog[47].dispatcher droppedJobsSLA 34
scalar FogSequentialForward.fog[47].dispatcher jobs_class_1 2305648
scalar FogSequentialForward.fog[47].dispatcher remoteJobs_class_1 2291191
scalar FogSequentialForward.fog[47].dispatcher localJobs_class_1 14423
scalar FogSequentialForward.fog[47].dispatcher droppedJobsSLA_class_1 34
scalar FogSequentialForward.fog[47].server[0] rho 1
scalar FogSequentialForward.fog[47].server[0] congestionRatio 0
scalar FogSequentialForward.fog[47].server[0] totalJobs 14423
scalar FogSequentialForward.fog[47].server[0] droppedJobsQueue 1170
scalar FogSequentialForward.fog[47].server[0] droppedJobsTimout 0
scalar FogSequentialForward.fog[47].server[0] droppedJobsSLA 8738
scalar FogSequentialForward.fog[47].server[0] droppedJobsTotal 9908
scalar FogSequentialForward.fog[48].dispatcher localJobs 14369
scalar FogSequentialForward.fog[48].dispatcher internalJobs 14437
scalar FogSequentialForward.fog[48].dispatcher externalJobs 2290196
scalar FogSequentialForward.fog[48].dispatcher remoteJobs 2290238
scalar FogSequentialForward.fog[48].dispatcher probeQueries 0
scalar FogSequentialForward.fog[48].dispatcher probeAnswers 0
scalar FogSequentialForward.fog[48].dispatcher droppedJobsSLA 26
scalar FogSequentialForward.fog[48].dispatcher jobs_class_1 2304633
scalar FogSequentialForward.fog[48].dispatcher remoteJobs_class_1 2290238
scalar FogSequentialForward.fog[48].dispatcher localJobs_class_1 14369
scalar FogSequentialForward.fog[48].dispatcher droppedJobsSLA_class_1 26
scalar FogSequentialForward.fog[48].server[0] rho 1
scalar FogSequentialForward.fog[48].server[0] congestionRatio 0
scalar FogSequentialForward.fog[48].server[0] totalJobs 14369
scalar FogSequentialForward.fog[48].server[0] droppedJobsQueue 1160
scalar FogSequentialForward.fog[48].server[0] droppedJobsTimout 0
scalar FogSequentialForward.fog[48].server[0] droppedJobsSLA 8708
scalar FogSequentialForward.fog[48].server[0] droppedJobsTotal 9868
scalar FogSequentialForward.fog[49].dispatcher localJobs 14398
scalar FogSequentialForward.fog[49].dispatcher internalJobs 14277
scalar FogSequentialForward.fog[49].dispatcher externalJobs 2290500
scalar FogSequentialForward.fog[49].dispatcher remoteJobs 2290349
scalar FogSequentialForward.fog[49].dispatcher probeQueries 0
scalar FogSequentialForward.fog[49].dispatcher probeAnswers 0
scalar FogSequentialForward.fog[49].dispatcher droppedJobsSLA 30
scalar FogSequentialForward.fog[49].dispatcher jobs_class_1 2304777
scalar FogSequentialForward.fog[49].dispatcher remoteJobs_class_1 2290349
scalar FogSequentialForward.fog[49].dispatcher localJobs_class_1 14398
scalar FogSequentialForward.fog[49].dispatcher droppedJobsSLA_class_1 30
scalar FogSequentialForward.fog[49].server[0] rho 0.99995601177216
scalar FogSequentialForward.fog[49].server[0] congestionRatio 0
scalar FogSequentialForward.fog[49].server[0] totalJobs 14398
scalar FogSequentialForward.fog[49].server[0] droppedJobsQueue 1163
scalar FogSequentialForward.fog[49].server[0] droppedJobsTimout 0
scalar FogSequentialForward.fog[49].server[0] droppedJobsSLA 8711
scalar FogSequentialForward.fog[49].server[0] droppedJobsTotal 9874
scalar FogSequentialForward.fog[50].dispatcher localJobs 14372
scalar FogSequentialForward.fog[50].dispatcher internalJobs 14367
scalar FogSequentialForward.fog[50].dispatcher externalJobs 2293553
scalar FogSequentialForward.fog[50].dispatcher remoteJobs 2293515
scalar FogSequentialForward.fog[50].dispatcher probeQueries 0
scalar FogSequentialForward.fog[50].dispatcher probeAnswers 0
scalar FogSequentialForward.fog[50].dispatcher droppedJobsSLA 33
scalar FogSequentialForward.fog[50].dispatcher jobs_class_1 2307920
scalar FogSequentialForward.fog[50].dispatcher remoteJobs_class_1 2293515
scalar FogSequentialForward.fog[50].dispatcher localJobs_class_1 14372
scalar FogSequentialForward.fog[50].dispatcher droppedJobsSLA_class_1 33
scalar FogSequentialForward.fog[50].server[0] rho 1
scalar FogSequentialForward.fog[50].server[0] congestionRatio 0
scalar FogSequentialForward.fog[50].server[0] totalJobs 14372
scalar FogSequentialForward.fog[50].server[0] droppedJobsQueue 1161
scalar FogSequentialForward.fog[50].server[0] droppedJobsTimout 0
scalar FogSequentialForward.fog[50].server[0] droppedJobsSLA 8728
scalar FogSequentialForward.fog[50].server[0] droppedJobsTotal 9889
scalar FogSequentialForward.fog[51].dispatcher localJobs 14359
scalar FogSequentialForward.fog[51].dispatcher internalJobs 14566
scalar FogSequentialForward.fog[51].dispatcher externalJobs 2290172
scalar FogSequentialForward.fog[51].dispatcher remoteJobs 2290360
scalar FogSequentialForward.fog[51].dispatcher probeQueries 0
scalar FogSequentialForward.fog[51].dispatcher probeAnswers 0
scalar FogSequentialForward.fog[51].dispatcher droppedJobsSLA 19
scalar FogSequentialForward.fog[51].dispatcher jobs_class_1 2304738
scalar FogSequentialForward.fog[51].dispatcher remoteJobs_class_1 2290360
scalar FogSequentialForward.fog[51].dispatcher localJobs_class_1 14359
scalar FogSequentialForward.fog[51].dispatcher droppedJobsSLA_class_1 19
scalar FogSequentialForward.fog[51].server[0] rho 0.99982243776321
scalar FogSequentialForward.fog[51].server[0] congestionRatio 0
scalar FogSequentialForward.fog[51].server[0] totalJobs 14359
scalar FogSequentialForward.fog[51].server[0] droppedJobsQueue 1162
scalar FogSequentialForward.fog[51].server[0] droppedJobsTimout 0
scalar FogSequentialForward.fog[51].server[0] droppedJobsSLA 8679
scalar FogSequentialForward.fog[51].server[0] droppedJobsTotal 9841
scalar FogSequentialForward.fog[52].dispatcher localJobs 14340
scalar FogSequentialForward.fog[52].dispatcher internalJobs 14350
scalar FogSequentialForward.fog[52].dispatcher externalJobs 2291534
scalar FogSequentialForward.fog[52].dispatcher remoteJobs 2291510
scalar FogSequentialForward.fog[52].dispatcher probeQueries 0
scalar FogSequentialForward.fog[52].dispatcher probeAnswers 0
scalar FogSequentialForward.fog[52].dispatcher droppedJobsSLA 34
scalar FogSequentialForward.fog[52].dispatcher jobs_class_1 2305884
scalar FogSequentialForward.fog[52].dispatcher remoteJobs_class_1 2291510
scalar FogSequentialForward.fog[52].dispatcher localJobs_class_1 14340
scalar FogSequentialForward.fog[52].dispatcher droppedJobsSLA_class_1 34
scalar FogSequentialForward.fog[52].server[0] rho 1
scalar FogSequentialForward.fog[52].server[0] congestionRatio 0
scalar FogSequentialForward.fog[52].server[0] totalJobs 14340
scalar FogSequentialForward.fog[52].server[0] droppedJobsQueue 1159
scalar FogSequentialForward.fog[52].server[0] droppedJobsTimout 0
scalar FogSequentialForward.fog[52].server[0] droppedJobsSLA 8683
scalar FogSequentialForward.fog[52].server[0] droppedJobsTotal 9842
scalar FogSequentialForward.fog[53].dispatcher localJobs 14382
scalar FogSequentialForward.fog[53].dispatcher internalJobs 14467
scalar FogSequentialForward.fog[53].dispatcher externalJobs 2290538
scalar FogSequentialForward.fog[53].dispatcher remoteJobs 2290587
scalar FogSequentialForward.fog[53].dispatcher probeQueries 0
scalar FogSequentialForward.fog[53].dispatcher probeAnswers 0
scalar FogSequentialForward.fog[53].dispatcher droppedJobsSLA 36
scalar FogSequentialForward.fog[53].dispatcher jobs_class_1 2305005
scalar FogSequentialForward.fog[53].dispatcher remoteJobs_class_1 2290587
scalar FogSequentialForward.fog[53].dispatcher localJobs_class_1 14382
scalar FogSequentialForward.fog[53].dispatcher droppedJobsSLA_class_1 36
scalar FogSequentialForward.fog[53].server[0] rho 1
scalar FogSequentialForward.fog[53].server[0] congestionRatio 0
scalar FogSequentialForward.fog[53].server[0] totalJobs 14382
scalar FogSequentialForward.fog[53].server[0] droppedJobsQueue 1164
scalar FogSequentialForward.fog[53].server[0] droppedJobsTimout 0
scalar FogSequentialForward.fog[53].server[0] droppedJobsSLA 8749
scalar FogSequentialForward.fog[53].server[0] droppedJobsTotal 9913
scalar FogSequentialForward.fog[54].dispatcher localJobs 14390
scalar FogSequentialForward.fog[54].dispatcher internalJobs 14387
scalar FogSequentialForward.fog[54].dispatcher externalJobs 2293609
scalar FogSequentialForward.fog[54].dispatcher remoteJobs 2293571
scalar FogSequentialForward.fog[54].dispatcher probeQueries 0
scalar FogSequentialForward.fog[54].dispatcher probeAnswers 0
scalar FogSequentialForward.fog[54].dispatcher droppedJobsSLA 35
scalar FogSequentialForward.fog[54].dispatcher jobs_class_1 2307996
scalar FogSequentialForward.fog[54].dispatcher remoteJobs_class_1 2293571
scalar FogSequentialForward.fog[54].dispatcher localJobs_class_1 14390
scalar FogSequentialForward.fog[54].dispatcher droppedJobsSLA_class_1 35
scalar FogSequentialForward.fog[54].server[0] rho 1
scalar FogSequentialForward.fog[54].server[0] congestionRatio 0
scalar FogSequentialForward.fog[54].server[0] totalJobs 14390
scalar FogSequentialForward.fog[54].server[0] droppedJobsQueue 1163
scalar FogSequentialForward.fog[54].server[0] droppedJobsTimout 0
scalar FogSequentialForward.fog[54].server[0] droppedJobsSLA 8712
scalar FogSequentialForward.fog[54].server[0] droppedJobsTotal 9875
scalar FogSequentialForward.fog[55].dispatcher localJobs 14380
scalar FogSequentialForward.fog[55].dispatcher internalJobs 14581
scalar FogSequentialForward.fog[55].dispatcher externalJobs 2290275
scalar FogSequentialForward.fog[55].dispatcher remoteJobs 2290435
scalar FogSequentialForward.fog[55].dispatcher probeQueries 0
scalar FogSequentialForward.fog[55].dispatcher probeAnswers 0
scalar FogSequentialForward.fog[55].dispatcher droppedJobsSLA 41
scalar FogSequentialForward.fog[55].dispatcher jobs_class_1 2304856
scalar FogSequentialForward.fog[55].dispatcher remoteJobs_class_1 2290435
scalar FogSequentialForward.fog[55].dispatcher localJobs_class_1 14380
scalar FogSequentialForward.fog[55].dispatcher droppedJobsSLA_class_1 41
scalar FogSequentialForward.fog[55].server[0] rho 0.99996465444565
scalar FogSequentialForward.fog[55].server[0] congestionRatio 0
scalar FogSequentialForward.fog[55].server[0] totalJobs 14380
scalar FogSequentialForward.fog[55].server[0] droppedJobsQueue 1165
scalar FogSequentialForward.fog[55].server[0] droppedJobsTimout 0
scalar FogSequentialForward.fog[55].server[0] droppedJobsSLA 8697
scalar FogSequentialForward.fog[55].server[0] droppedJobsTotal 9862
scalar FogSequentialForward.fog[56].dispatcher localJobs 14418
scalar FogSequentialForward.fog[56].dispatcher internalJobs 14398
scalar FogSequentialForward.fog[56].dispatcher externalJobs 2294109
scalar FogSequentialForward.fog[56].dispatcher remoteJobs 2294060
scalar FogSequentialForward.fog[56].dispatcher probeQueries 0
scalar FogSequentialForward.fog[56].dispatcher probeAnswers 0
scalar FogSequentialForward.fog[56].dispatcher droppedJobsSLA 29
scalar FogSequentialForward.fog[56].dispatcher jobs_class_1 2308507
scalar FogSequentialForward.fog[56].dispatcher remoteJobs_class_1 2294060
scalar FogSequentialForward.fog[56].dispatcher localJobs_class_1 14418
scalar FogSequentialForward.fog[56].dispatcher droppedJobsSLA_class_1 29
scalar FogSequentialForward.fog[56].server[0] rho 1
scalar FogSequentialForward.fog[56].server[0] congestionRatio 0
scalar FogSequentialForward.fog[56].server[0] totalJobs 14418
scalar FogSequentialForward.fog[56].server[0] droppedJobsQueue 1166
scalar FogSequentialForward.fog[56].server[0] droppedJobsTimout 0
scalar FogSequentialForward.fog[56].server[0] droppedJobsSLA 8743
scalar FogSequentialForward.fog[56].server[0] droppedJobsTotal 9909
scalar FogSequentialForward.fog[57].dispatcher localJobs 14404
scalar FogSequentialForward.fog[57].dispatcher internalJobs 14383
scalar FogSequentialForward.fog[57].dispatcher externalJobs 2291561
scalar FogSequentialForward.fog[57].dispatcher remoteJobs 2291510
scalar FogSequentialForward.fog[57].dispatcher probeQueries 0
scalar FogSequentialForward.fog[57].dispatcher probeAnswers 0
scalar FogSequentialForward.fog[57].dispatcher droppedJobsSLA 30
scalar FogSequentialForward.fog[57].dispatcher jobs_class_1 2305944
scalar FogSequentialForward.fog[57].dispatcher remoteJobs_class_1 2291510
scalar FogSequentialForward.fog[57].dispatcher localJobs_class_1 14404
scalar FogSequentialForward.fog[57].dispatcher droppedJobsSLA_class_1 30
scalar FogSequentialForward.fog[57].server[0] rho 1
scalar FogSequentialForward.fog[57].server[0] congestionRatio 0
scalar FogSequentialForward.fog[57].server[0] totalJobs 14404
scalar FogSequentialForward.fog[57].server[0] droppedJobsQueue 1167
scalar FogSequentialForward.fog[57].server[0] droppedJobsTimout 0
scalar FogSequentialForward.fog[57].server[0] droppedJobsSLA 8709
scalar FogSequentialForward.fog[57].server[0] droppedJobsTotal 9876
scalar FogSequentialForward.fog[58].dispatcher localJobs 14382
scalar FogSequentialForward.fog[58].dispatcher internalJobs 14267
scalar FogSequentialForward.fog[58].dispatcher externalJobs 2292034
scalar FogSequentialForward.fog[58].dispatcher remoteJobs 2291894
scalar FogSequentialForward.fog[58].dispatcher probeQueries 0
scalar FogSequentialForward.fog[58].dispatcher probeAnswers 0
scalar FogSequentialForward.fog[58].dispatcher droppedJobsSLA 25
scalar FogSequentialForward.fog[58].dispatcher jobs_class_1 2306301
scalar FogSequentialForward.fog[58].dispatcher remoteJobs_class_1 2291894
scalar FogSequentialForward.fog[58].dispatcher localJobs_class_1 14382
scalar FogSequentialForward.fog[58].dispatcher droppedJobsSLA_class_1 25
scalar FogSequentialForward.fog[58].server[0] rho 1
scalar FogSequentialForward.fog[58].server[0] congestionRatio 0
scalar FogSequentialForward.fog[58].server[0] totalJobs 14382
scalar FogSequentialForward.fog[58].server[0] droppedJobsQueue 1164
scalar FogSequentialForward.fog[58].server[0] droppedJobsTimout 0
scalar FogSequentialForward.fog[58].server[0] droppedJobsSLA 8713
scalar FogSequentialForward.fog[58].server[0] droppedJobsTotal 9877
scalar FogSequentialForward.fog[59].dispatcher localJobs 14370
scalar FogSequentialForward.fog[59].dispatcher internalJobs 14462
scalar FogSequentialForward.fog[59].dispatcher externalJobs 2293188
scalar FogSequentialForward.fog[59].dispatcher remoteJobs 2293244
scalar FogSequentialForward.fog[59].dispatcher probeQueries 0
scalar FogSequentialForward.fog[59].dispatcher probeAnswers 0
scalar FogSequentialForward.fog[59].dispatcher droppedJobsSLA 36
scalar FogSequentialForward.fog[59].dispatcher jobs_class_1 2307650
scalar FogSequentialForward.fog[59].dispatcher remoteJobs_class_1 2293244
scalar FogSequentialForward.fog[59].dispatcher localJobs_class_1 14370
scalar FogSequentialForward.fog[59].dispatcher droppedJobsSLA_class_1 36
scalar FogSequentialForward.fog[59].server[0] rho 0.99996703863144
scalar FogSequentialForward.fog[59].server[0] congestionRatio 0
scalar FogSequentialForward.fog[59].server[0] totalJobs 14370
scalar FogSequentialForward.fog[59].server[0] droppedJobsQueue 1162
scalar FogSequentialForward.fog[59].server[0] droppedJobsTimout 0
scalar FogSequentialForward.fog[59].server[0] droppedJobsSLA 8737
scalar FogSequentialForward.fog[59].server[0] droppedJobsTotal 9899
scalar FogSequentialForward.fog[60].dispatcher localJobs 14413
scalar FogSequentialForward.fog[60].dispatcher internalJobs 14369
scalar FogSequentialForward.fog[60].dispatcher externalJobs 2293645
scalar FogSequentialForward.fog[60].dispatcher remoteJobs 2293580
scalar FogSequentialForward.fog[60].dispatcher probeQueries 0
scalar FogSequentialForward.fog[60].dispatcher probeAnswers 0
scalar FogSequentialForward.fog[60].dispatcher droppedJobsSLA 21
scalar FogSequentialForward.fog[60].dispatcher jobs_class_1 2308014
scalar FogSequentialForward.fog[60].dispatcher remoteJobs_class_1 2293580
scalar FogSequentialForward.fog[60].dispatcher localJobs_class_1 14413
scalar FogSequentialForward.fog[60].dispatcher droppedJobsSLA_class_1 21
scalar FogSequentialForward.fog[60].server[0] rho 1
scalar FogSequentialForward.fog[60].server[0] congestionRatio 0
scalar FogSequentialForward.fog[60].server[0] totalJobs 14413
scalar FogSequentialForward.fog[60].server[0] droppedJobsQueue 1165
scalar FogSequentialForward.fog[60].server[0] droppedJobsTimout 0
scalar FogSequentialForward.fog[60].server[0] droppedJobsSLA 8725
scalar FogSequentialForward.fog[60].server[0] droppedJobsTotal 9890
scalar FogSequentialForward.fog[61].dispatcher localJobs 14353
scalar FogSequentialForward.fog[61].dispatcher internalJobs 14266
scalar FogSequentialForward.fog[61].dispatcher externalJobs 2293248
scalar FogSequentialForward.fog[61].dispatcher remoteJobs 2293135
scalar FogSequentialForward.fog[61].dispatcher probeQueries 0
scalar FogSequentialForward.fog[61].dispatcher probeAnswers 0
scalar FogSequentialForward.fog[61].dispatcher droppedJobsSLA 26
scalar FogSequentialForward.fog[61].dispatcher jobs_class_1 2307514
scalar FogSequentialForward.fog[61].dispatcher remoteJobs_class_1 2293135
scalar FogSequentialForward.fog[61].dispatcher localJobs_class_1 14353
scalar FogSequentialForward.fog[61].dispatcher droppedJobsSLA_class_1 26
scalar FogSequentialForward.fog[61].server[0] rho 0.9999703168869
scalar FogSequentialForward.fog[61].server[0] congestionRatio 0
scalar FogSequentialForward.fog[61].server[0] totalJobs 14353
scalar FogSequentialForward.fog[61].server[0] droppedJobsQueue 1163
scalar FogSequentialForward.fog[61].server[0] droppedJobsTimout 0
scalar FogSequentialForward.fog[61].server[0] droppedJobsSLA 8630
scalar FogSequentialForward.fog[61].server[0] droppedJobsTotal 9793
scalar FogSequentialForward.fog[62].dispatcher localJobs 14393
scalar FogSequentialForward.fog[62].dispatcher internalJobs 14330
scalar FogSequentialForward.fog[62].dispatcher externalJobs 2292339
scalar FogSequentialForward.fog[62].dispatcher remoteJobs 2292243
scalar FogSequentialForward.fog[62].dispatcher probeQueries 0
scalar FogSequentialForward.fog[62].dispatcher probeAnswers 0
scalar FogSequentialForward.fog[62].dispatcher droppedJobsSLA 33
scalar FogSequentialForward.fog[62].dispatcher jobs_class_1 2306669
scalar FogSequentialForward.fog[62].dispatcher remoteJobs_class_1 2292243
scalar FogSequentialForward.fog[62].dispatcher localJobs_class_1 14393
scalar FogSequentialForward.fog[62].dispatcher droppedJobsSLA_class_1 33
scalar FogSequentialForward.fog[62].server[0] rho 1
scalar FogSequentialForward.fog[62].server[0] congestionRatio 0
scalar FogSequentialForward.fog[62].server[0] totalJobs 14393
scalar FogSequentialForward.fog[62].server[0] droppedJobsQueue 1165
scalar FogSequentialForward.fog[62].server[0] droppedJobsTimout 0
scalar FogSequentialForward.fog[62].server[0] droppedJobsSLA 8713
scalar FogSequentialForward.fog[62].server[0] droppedJobsTotal 9878
scalar FogSequentialForward.fog[63].dispatcher localJobs 14335
scalar FogSequentialForward.fog[63].dispatcher internalJobs 14529
scalar FogSequentialForward.fog[63].dispatcher externalJobs 2291892
scalar FogSequentialForward.fog[63].dispatcher remoteJobs 2292050
scalar FogSequentialForward.fog[63].dispatcher probeQueries 0
scalar FogSequentialForward.fog[63].dispatcher probeAnswers 0
scalar FogSequentialForward.fog[63].dispatcher droppedJobsSLA 36
scalar FogSequentialForward.fog[63].dispatcher jobs_class_1 2306421
scalar FogSequentialForward.fog[63].dispatcher remoteJobs_class_1 2292050
scalar FogSequentialForward.fog[63].dispatcher localJobs_class_1 14335
scalar FogSequentialForward.fog[63].dispatcher droppedJobsSLA_class_1 36
scalar FogSequentialForward.fog[63].server[0] rho 0.99991750717163
scalar FogSequentialForward.fog[63].server[0] congestionRatio 0
scalar FogSequentialForward.fog[63].server[0] totalJobs 14335
scalar FogSequentialForward.fog[63].server[0] droppedJobsQueue 1158
scalar FogSequentialForward.fog[63].server[0] droppedJobsTimout 0
scalar FogSequentialForward.fog[63].server[0] droppedJobsSLA 8668
scalar FogSequentialForward.fog[63].server[0] droppedJobsTotal 9826
scalar FogSequentialForward.fog[64].dispatcher localJobs 14376
scalar FogSequentialForward.fog[64].dispatcher internalJobs 14296
scalar FogSequentialForward.fog[64].dispatcher externalJobs 2292640
scalar FogSequentialForward.fog[64].dispatcher remoteJobs 2292532
scalar FogSequentialForward.fog[64].dispatcher probeQueries 0
scalar FogSequentialForward.fog[64].dispatcher probeAnswers 0
scalar FogSequentialForward.fog[64].dispatcher droppedJobsSLA 28
scalar FogSequentialForward.fog[64].dispatcher jobs_class_1 2306936
scalar FogSequentialForward.fog[64].dispatcher remoteJobs_class_1 2292532
scalar FogSequentialForward.fog[64].dispatcher localJobs_class_1 14376
scalar FogSequentialForward.fog[64].dispatcher droppedJobsSLA_class_1 28
scalar FogSequentialForward.fog[64].server[0] rho 1
scalar FogSequentialForward.fog[64].server[0] congestionRatio 0
scalar FogSequentialForward.fog[64].server[0] totalJobs 14376
scalar FogSequentialForward.fog[64].server[0] droppedJobsQueue 1165
scalar FogSequentialForward.fog[64].server[0] droppedJobsTimout 0
scalar FogSequentialForward.fog[64].server[0] droppedJobsSLA 8722
scalar FogSequentialForward.fog[64].server[0] droppedJobsTotal 9887
scalar FogSequentialForward.fog[65].dispatcher localJobs 14385
scalar FogSequentialForward.fog[65].dispatcher internalJobs 14427
scalar FogSequentialForward.fog[65].dispatcher externalJobs 2292262
scalar FogSequentialForward.fog[65].dispatcher remoteJobs 2292277
scalar FogSequentialForward.fog[65].dispatcher probeQueries 0
scalar FogSequentialForward.fog[65].dispatcher probeAnswers 0
scalar FogSequentialForward.fog[65].dispatcher droppedJobsSLA 27
scalar FogSequentialForward.fog[65].dispatcher jobs_class_1 2306689
scalar FogSequentialForward.fog[65].dispatcher remoteJobs_class_1 2292277
scalar FogSequentialForward.fog[65].dispatcher localJobs_class_1 14385
scalar FogSequentialForward.fog[65].dispatcher droppedJobsSLA_class_1 27
scalar FogSequentialForward.fog[65].server[0] rho 1
scalar FogSequentialForward.fog[65].server[0] congestionRatio 0
scalar FogSequentialForward.fog[65].server[0] totalJobs 14385
scalar FogSequentialForward.fog[65].server[0] droppedJobsQueue 1162
scalar FogSequentialForward.fog[65].server[0] droppedJobsTimout 0
scalar FogSequentialForward.fog[65].server[0] droppedJobsSLA 8690
scalar FogSequentialForward.fog[65].server[0] droppedJobsTotal 9852
scalar FogSequentialForward.fog[66].dispatcher localJobs 14334
scalar FogSequentialForward.fog[66].dispatcher internalJobs 14487
scalar FogSequentialForward.fog[66].dispatcher externalJobs 2292180
scalar FogSequentialForward.fog[66].dispatcher remoteJobs 2292299
scalar FogSequentialForward.fog[66].dispatcher probeQueries 0
scalar FogSequentialForward.fog[66].dispatcher probeAnswers 0
scalar FogSequentialForward.fog[66].dispatcher droppedJobsSLA 34
scalar FogSequentialForward.fog[66].dispatcher jobs_class_1 2306667
[...]
scalar FogSequentialForward.fog[84].dispatcher internalJobs 14321
scalar FogSequentialForward.fog[84].dispatcher externalJobs 2294224
scalar FogSequentialForward.fog[84].dispatcher remoteJobs 2294149
scalar FogSequentialForward.fog[84].dispatcher probeQueries 0
scalar FogSequentialForward.fog[84].dispatcher probeAnswers 0
scalar FogSequentialForward.fog[84].dispatcher droppedJobsSLA 23
scalar FogSequentialForward.fog[84].dispatcher jobs_class_1 2308545
scalar FogSequentialForward.fog[84].dispatcher remoteJobs_class_1 2294149
scalar FogSequentialForward.fog[84].dispatcher localJobs_class_1 14373
scalar FogSequentialForward.fog[84].dispatcher droppedJobsSLA_class_1 23
scalar FogSequentialForward.fog[84].server[0] rho 1
scalar FogSequentialForward.fog[84].server[0] congestionRatio 0
scalar FogSequentialForward.fog[84].server[0] totalJobs 14373
scalar FogSequentialForward.fog[84].server[0] droppedJobsQueue 1164
scalar FogSequentialForward.fog[84].server[0] droppedJobsTimout 0
scalar FogSequentialForward.fog[84].server[0] droppedJobsSLA 8704
scalar FogSequentialForward.fog[84].server[0] droppedJobsTotal 9868
scalar FogSequentialForward.fog[85].dispatcher localJobs 14387
scalar FogSequentialForward.fog[85].dispatcher internalJobs 14260
scalar FogSequentialForward.fog[85].dispatcher externalJobs 2295441
scalar FogSequentialForward.fog[85].dispatcher remoteJobs 2295288
scalar FogSequentialForward.fog[85].dispatcher probeQueries 0
scalar FogSequentialForward.fog[85].dispatcher probeAnswers 0
scalar FogSequentialForward.fog[85].dispatcher droppedJobsSLA 26
scalar FogSequentialForward.fog[85].dispatcher jobs_class_1 2309701
scalar FogSequentialForward.fog[85].dispatcher remoteJobs_class_1 2295288
scalar FogSequentialForward.fog[85].dispatcher localJobs_class_1 14387
scalar FogSequentialForward.fog[85].dispatcher droppedJobsSLA_class_1 26
scalar FogSequentialForward.fog[85].server[0] rho 0.99991059303284
scalar FogSequentialForward.fog[85].server[0] congestionRatio 0
scalar FogSequentialForward.fog[85].server[0] totalJobs 14387
scalar FogSequentialForward.fog[85].server[0] droppedJobsQueue 1165
scalar FogSequentialForward.fog[85].server[0] droppedJobsTimout 0
scalar FogSequentialForward.fog[85].server[0] droppedJobsSLA 8751
scalar FogSequentialForward.fog[85].server[0] droppedJobsTotal 9916
scalar FogSequentialForward.fog[86].dispatcher localJobs 14369
scalar FogSequentialForward.fog[86].dispatcher internalJobs 14467
scalar FogSequentialForward.fog[86].dispatcher externalJobs 2290650
scalar FogSequentialForward.fog[86].dispatcher remoteJobs 2290715
scalar FogSequentialForward.fog[86].dispatcher probeQueries 0
scalar FogSequentialForward.fog[86].dispatcher probeAnswers 0
scalar FogSequentialForward.fog[86].dispatcher droppedJobsSLA 33
scalar FogSequentialForward.fog[86].dispatcher jobs_class_1 2305117
scalar FogSequentialForward.fog[86].dispatcher remoteJobs_class_1 2290715
scalar FogSequentialForward.fog[86].dispatcher localJobs_class_1 14369
scalar FogSequentialForward.fog[86].dispatcher droppedJobsSLA_class_1 33
scalar FogSequentialForward.fog[86].server[0] rho 1
scalar FogSequentialForward.fog[86].server[0] congestionRatio 0
scalar FogSequentialForward.fog[86].server[0] totalJobs 14369
scalar FogSequentialForward.fog[86].server[0] droppedJobsQueue 1159
scalar FogSequentialForward.fog[86].server[0] droppedJobsTimout 0
scalar FogSequentialForward.fog[86].server[0] droppedJobsSLA 8689
scalar FogSequentialForward.fog[86].server[0] droppedJobsTotal 9848
scalar FogSequentialForward.fog[87].dispatcher localJobs 14400
scalar FogSequentialForward.fog[87].dispatcher internalJobs 14446
scalar FogSequentialForward.fog[87].dispatcher externalJobs 2290118
scalar FogSequentialForward.fog[87].dispatcher remoteJobs 2290137
scalar FogSequentialForward.fog[87].dispatcher probeQueries 0
scalar FogSequentialForward.fog[87].dispatcher probeAnswers 0
scalar FogSequentialForward.fog[87].dispatcher droppedJobsSLA 27
scalar FogSequentialForward.fog[87].dispatcher jobs_class_1 2304564
scalar FogSequentialForward.fog[87].dispatcher remoteJobs_class_1 2290137
scalar FogSequentialForward.fog[87].dispatcher localJobs_class_1 14400
scalar FogSequentialForward.fog[87].dispatcher droppedJobsSLA_class_1 27
scalar FogSequentialForward.fog[87].server[0] rho 1
scalar FogSequentialForward.fog[87].server[0] congestionRatio 0
scalar FogSequentialForward.fog[87].server[0] totalJobs 14400
scalar FogSequentialForward.fog[87].server[0] droppedJobsQueue 1165
scalar FogSequentialForward.fog[87].server[0] droppedJobsTimout 0
scalar FogSequentialForward.fog[87].server[0] droppedJobsSLA 8764
scalar FogSequentialForward.fog[87].server[0] droppedJobsTotal 9929
scalar FogSequentialForward.fog[88].dispatcher localJobs 14378
scalar FogSequentialForward.fog[88].dispatcher internalJobs 14516
scalar FogSequentialForward.fog[88].dispatcher externalJobs 2293646
scalar FogSequentialForward.fog[88].dispatcher remoteJobs 2293748
scalar FogSequentialForward.fog[88].dispatcher probeQueries 0
scalar FogSequentialForward.fog[88].dispatcher probeAnswers 0
scalar FogSequentialForward.fog[88].dispatcher droppedJobsSLA 36
scalar FogSequentialForward.fog[88].dispatcher jobs_class_1 2308162
scalar FogSequentialForward.fog[88].dispatcher remoteJobs_class_1 2293748
scalar FogSequentialForward.fog[88].dispatcher localJobs_class_1 14378
scalar FogSequentialForward.fog[88].dispatcher droppedJobsSLA_class_1 36
scalar FogSequentialForward.fog[88].server[0] rho 1
scalar FogSequentialForward.fog[88].server[0] congestionRatio 0
scalar FogSequentialForward.fog[88].server[0] totalJobs 14378
scalar FogSequentialForward.fog[88].server[0] droppedJobsQueue 1162
scalar FogSequentialForward.fog[88].server[0] droppedJobsTimout 0
scalar FogSequentialForward.fog[88].server[0] droppedJobsSLA 8725
scalar FogSequentialForward.fog[88].server[0] droppedJobsTotal 9887
scalar FogSequentialForward.fog[89].dispatcher localJobs 14353
scalar FogSequentialForward.fog[89].dispatcher internalJobs 14357
scalar FogSequentialForward.fog[89].dispatcher externalJobs 2295779
scalar FogSequentialForward.fog[89].dispatcher remoteJobs 2295747
scalar FogSequentialForward.fog[89].dispatcher probeQueries 0
scalar FogSequentialForward.fog[89].dispatcher probeAnswers 0
scalar FogSequentialForward.fog[89].dispatcher droppedJobsSLA 36
scalar FogSequentialForward.fog[89].dispatcher jobs_class_1 2310136
scalar FogSequentialForward.fog[89].dispatcher remoteJobs_class_1 2295747
scalar FogSequentialForward.fog[89].dispatcher localJobs_class_1 14353
scalar FogSequentialForward.fog[89].dispatcher droppedJobsSLA_class_1 36
scalar FogSequentialForward.fog[89].server[0] rho 1
scalar FogSequentialForward.fog[89].server[0] congestionRatio 0
scalar FogSequentialForward.fog[89].server[0] totalJobs 14353
scalar FogSequentialForward.fog[89].server[0] droppedJobsQueue 1161
scalar FogSequentialForward.fog[89].server[0] droppedJobsTimout 0
scalar FogSequentialForward.fog[89].server[0] droppedJobsSLA 8681
scalar FogSequentialForward.fog[89].server[0] droppedJobsTotal 9842
scalar FogSequentialForward.fog[90].dispatcher localJobs 14388
scalar FogSequentialForward.fog[90].dispatcher internalJobs 14270
scalar FogSequentialForward.fog[90].dispatcher externalJobs 2291408
scalar FogSequentialForward.fog[90].dispatcher remoteJobs 2291263
scalar FogSequentialForward.fog[90].dispatcher probeQueries 0
scalar FogSequentialForward.fog[90].dispatcher probeAnswers 0
scalar FogSequentialForward.fog[90].dispatcher droppedJobsSLA 27
scalar FogSequentialForward.fog[90].dispatcher jobs_class_1 2305678
scalar FogSequentialForward.fog[90].dispatcher remoteJobs_class_1 2291263
scalar FogSequentialForward.fog[90].dispatcher localJobs_class_1 14388
scalar FogSequentialForward.fog[90].dispatcher droppedJobsSLA_class_1 27
scalar FogSequentialForward.fog[90].server[0] rho 1
scalar FogSequentialForward.fog[90].server[0] congestionRatio 0
scalar FogSequentialForward.fog[90].server[0] totalJobs 14388
scalar FogSequentialForward.fog[90].server[0] droppedJobsQueue 1166
scalar FogSequentialForward.fog[90].server[0] droppedJobsTimout 0
scalar FogSequentialForward.fog[90].server[0] droppedJobsSLA 8739
scalar FogSequentialForward.fog[90].server[0] droppedJobsTotal 9905
scalar FogSequentialForward.fog[91].dispatcher localJobs 14369
scalar FogSequentialForward.fog[91].dispatcher internalJobs 14403
scalar FogSequentialForward.fog[91].dispatcher externalJobs 2292980
scalar FogSequentialForward.fog[91].dispatcher remoteJobs 2292987
scalar FogSequentialForward.fog[91].dispatcher probeQueries 0
scalar FogSequentialForward.fog[91].dispatcher probeAnswers 0
scalar FogSequentialForward.fog[91].dispatcher droppedJobsSLA 27
scalar FogSequentialForward.fog[91].dispatcher jobs_class_1 2307383
scalar FogSequentialForward.fog[91].dispatcher remoteJobs_class_1 2292987
scalar FogSequentialForward.fog[91].dispatcher localJobs_class_1 14369
scalar FogSequentialForward.fog[91].dispatcher droppedJobsSLA_class_1 27
scalar FogSequentialForward.fog[91].server[0] rho 0.9999720454216
scalar FogSequentialForward.fog[91].server[0] congestionRatio 0
scalar FogSequentialForward.fog[91].server[0] totalJobs 14369
scalar FogSequentialForward.fog[91].server[0] droppedJobsQueue 1166
scalar FogSequentialForward.fog[91].server[0] droppedJobsTimout 0
scalar FogSequentialForward.fog[91].server[0] droppedJobsSLA 8729
scalar FogSequentialForward.fog[91].server[0] droppedJobsTotal 9895
scalar FogSequentialForward.fog[92].dispatcher localJobs 14358
scalar FogSequentialForward.fog[92].dispatcher internalJobs 14333
scalar FogSequentialForward.fog[92].dispatcher externalJobs 2291799
scalar FogSequentialForward.fog[92].dispatcher remoteJobs 2291740
scalar FogSequentialForward.fog[92].dispatcher probeQueries 0
scalar FogSequentialForward.fog[92].dispatcher probeAnswers 0
scalar FogSequentialForward.fog[92].dispatcher droppedJobsSLA 34
scalar FogSequentialForward.fog[92].dispatcher jobs_class_1 2306132
scalar FogSequentialForward.fog[92].dispatcher remoteJobs_class_1 2291740
scalar FogSequentialForward.fog[92].dispatcher localJobs_class_1 14358
scalar FogSequentialForward.fog[92].dispatcher droppedJobsSLA_class_1 34
scalar FogSequentialForward.fog[92].server[0] rho 1
scalar FogSequentialForward.fog[92].server[0] congestionRatio 0
scalar FogSequentialForward.fog[92].server[0] totalJobs 14358
scalar FogSequentialForward.fog[92].server[0] droppedJobsQueue 1163
scalar FogSequentialForward.fog[92].server[0] droppedJobsTimout 0
scalar FogSequentialForward.fog[92].server[0] droppedJobsSLA 8698
scalar FogSequentialForward.fog[92].server[0] droppedJobsTotal 9861
scalar FogSequentialForward.fog[93].dispatcher localJobs 14345
scalar FogSequentialForward.fog[93].dispatcher internalJobs 14336
scalar FogSequentialForward.fog[93].dispatcher externalJobs 2291900
scalar FogSequentialForward.fog[93].dispatcher remoteJobs 2291866
scalar FogSequentialForward.fog[93].dispatcher probeQueries 0
scalar FogSequentialForward.fog[93].dispatcher probeAnswers 0
scalar FogSequentialForward.fog[93].dispatcher droppedJobsSLA 25
scalar FogSequentialForward.fog[93].dispatcher jobs_class_1 2306236
scalar FogSequentialForward.fog[93].dispatcher remoteJobs_class_1 2291866
scalar FogSequentialForward.fog[93].dispatcher localJobs_class_1 14345
scalar FogSequentialForward.fog[93].dispatcher droppedJobsSLA_class_1 25
scalar FogSequentialForward.fog[93].server[0] rho 1
scalar FogSequentialForward.fog[93].server[0] congestionRatio 0
scalar FogSequentialForward.fog[93].server[0] totalJobs 14345
scalar FogSequentialForward.fog[93].server[0] droppedJobsQueue 1164
scalar FogSequentialForward.fog[93].server[0] droppedJobsTimout 0
scalar FogSequentialForward.fog[93].server[0] droppedJobsSLA 8755
scalar FogSequentialForward.fog[93].server[0] droppedJobsTotal 9919
scalar FogSequentialForward.fog[94].dispatcher localJobs 14345
scalar FogSequentialForward.fog[94].dispatcher internalJobs 14615
scalar FogSequentialForward.fog[94].dispatcher externalJobs 2293043
scalar FogSequentialForward.fog[94].dispatcher remoteJobs 2293280
scalar FogSequentialForward.fog[94].dispatcher probeQueries 0
scalar FogSequentialForward.fog[94].dispatcher probeAnswers 0
scalar FogSequentialForward.fog[94].dispatcher droppedJobsSLA 33
scalar FogSequentialForward.fog[94].dispatcher jobs_class_1 2307658
scalar FogSequentialForward.fog[94].dispatcher remoteJobs_class_1 2293280
scalar FogSequentialForward.fog[94].dispatcher localJobs_class_1 14345
scalar FogSequentialForward.fog[94].dispatcher droppedJobsSLA_class_1 33
scalar FogSequentialForward.fog[94].server[0] rho 1
scalar FogSequentialForward.fog[94].server[0] congestionRatio 0
scalar FogSequentialForward.fog[94].server[0] totalJobs 14345
scalar FogSequentialForward.fog[94].server[0] droppedJobsQueue 1162
scalar FogSequentialForward.fog[94].server[0] droppedJobsTimout 0
scalar FogSequentialForward.fog[94].server[0] droppedJobsSLA 8749
scalar FogSequentialForward.fog[94].server[0] droppedJobsTotal 9911
scalar FogSequentialForward.fog[95].dispatcher localJobs 14373
scalar FogSequentialForward.fog[95].dispatcher internalJobs 14456
scalar FogSequentialForward.fog[95].dispatcher externalJobs 2293373
scalar FogSequentialForward.fog[95].dispatcher remoteJobs 2293410
scalar FogSequentialForward.fog[95].dispatcher probeQueries 0
scalar FogSequentialForward.fog[95].dispatcher probeAnswers 0
scalar FogSequentialForward.fog[95].dispatcher droppedJobsSLA 46
scalar FogSequentialForward.fog[95].dispatcher jobs_class_1 2307829
scalar FogSequentialForward.fog[95].dispatcher remoteJobs_class_1 2293410
scalar FogSequentialForward.fog[95].dispatcher localJobs_class_1 14373
scalar FogSequentialForward.fog[95].dispatcher droppedJobsSLA_class_1 46
scalar FogSequentialForward.fog[95].server[0] rho 1
scalar FogSequentialForward.fog[95].server[0] congestionRatio 0
scalar FogSequentialForward.fog[95].server[0] totalJobs 14373
scalar FogSequentialForward.fog[95].server[0] droppedJobsQueue 1165
scalar FogSequentialForward.fog[95].server[0] droppedJobsTimout 0
scalar FogSequentialForward.fog[95].server[0] droppedJobsSLA 8758
scalar FogSequentialForward.fog[95].server[0] droppedJobsTotal 9923
scalar FogSequentialForward.fog[96].dispatcher localJobs 14382
scalar FogSequentialForward.fog[96].dispatcher internalJobs 14368
scalar FogSequentialForward.fog[96].dispatcher externalJobs 2292290
scalar FogSequentialForward.fog[96].dispatcher remoteJobs 2292243
scalar FogSequentialForward.fog[96].dispatcher probeQueries 0
scalar FogSequentialForward.fog[96].dispatcher probeAnswers 0
scalar FogSequentialForward.fog[96].dispatcher droppedJobsSLA 33
scalar FogSequentialForward.fog[96].dispatcher jobs_class_1 2306658
scalar FogSequentialForward.fog[96].dispatcher remoteJobs_class_1 2292243
scalar FogSequentialForward.fog[96].dispatcher localJobs_class_1 14382
scalar FogSequentialForward.fog[96].dispatcher droppedJobsSLA_class_1 33
scalar FogSequentialForward.fog[96].server[0] rho 1
scalar FogSequentialForward.fog[96].server[0] congestionRatio 0
scalar FogSequentialForward.fog[96].server[0] totalJobs 14382
scalar FogSequentialForward.fog[96].server[0] droppedJobsQueue 1165
scalar FogSequentialForward.fog[96].server[0] droppedJobsTimout 0
scalar FogSequentialForward.fog[96].server[0] droppedJobsSLA 8689
scalar FogSequentialForward.fog[96].server[0] droppedJobsTotal 9854
scalar FogSequentialForward.fog[97].dispatcher localJobs 14408
scalar FogSequentialForward.fog[97].dispatcher internalJobs 14485
scalar FogSequentialForward.fog[97].dispatcher externalJobs 2291795
scalar FogSequentialForward.fog[97].dispatcher remoteJobs 2291843
scalar FogSequentialForward.fog[97].dispatcher probeQueries 0
scalar FogSequentialForward.fog[97].dispatcher probeAnswers 0
scalar FogSequentialForward.fog[97].dispatcher droppedJobsSLA 29
scalar FogSequentialForward.fog[97].dispatcher jobs_class_1 2306280
scalar FogSequentialForward.fog[97].dispatcher remoteJobs_class_1 2291843
scalar FogSequentialForward.fog[97].dispatcher localJobs_class_1 14408
scalar FogSequentialForward.fog[97].dispatcher droppedJobsSLA_class_1 29
scalar FogSequentialForward.fog[97].server[0] rho 1
scalar FogSequentialForward.fog[97].server[0] congestionRatio 0
scalar FogSequentialForward.fog[97].server[0] totalJobs 14408
scalar FogSequentialForward.fog[97].server[0] droppedJobsQueue 1168
scalar FogSequentialForward.fog[97].server[0] droppedJobsTimout 0
scalar FogSequentialForward.fog[97].server[0] droppedJobsSLA 8756
scalar FogSequentialForward.fog[97].server[0] droppedJobsTotal 9924
scalar FogSequentialForward.fog[98].dispatcher localJobs 14363
scalar FogSequentialForward.fog[98].dispatcher internalJobs 14247
scalar FogSequentialForward.fog[98].dispatcher externalJobs 2292774
scalar FogSequentialForward.fog[98].dispatcher remoteJobs 2292630
scalar FogSequentialForward.fog[98].dispatcher probeQueries 0
scalar FogSequentialForward.fog[98].dispatcher probeAnswers 0
scalar FogSequentialForward.fog[98].dispatcher droppedJobsSLA 28
scalar FogSequentialForward.fog[98].dispatcher jobs_class_1 2307021
scalar FogSequentialForward.fog[98].dispatcher remoteJobs_class_1 2292630
scalar FogSequentialForward.fog[98].dispatcher localJobs_class_1 14363
scalar FogSequentialForward.fog[98].dispatcher droppedJobsSLA_class_1 28
scalar FogSequentialForward.fog[98].server[0] rho 1
scalar FogSequentialForward.fog[98].server[0] congestionRatio 0
scalar FogSequentialForward.fog[98].server[0] totalJobs 14363
scalar FogSequentialForward.fog[98].server[0] droppedJobsQueue 1161
scalar FogSequentialForward.fog[98].server[0] droppedJobsTimout 0
scalar FogSequentialForward.fog[98].server[0] droppedJobsSLA 8771
scalar FogSequentialForward.fog[98].server[0] droppedJobsTotal 9932
scalar FogSequentialForward.fog[99].dispatcher localJobs 14369
scalar FogSequentialForward.fog[99].dispatcher internalJobs 14140
scalar FogSequentialForward.fog[99].dispatcher externalJobs 2292149
scalar FogSequentialForward.fog[99].dispatcher remoteJobs 2291889
scalar FogSequentialForward.fog[99].dispatcher probeQueries 0
scalar FogSequentialForward.fog[99].dispatcher probeAnswers 0
scalar FogSequentialForward.fog[99].dispatcher droppedJobsSLA 31
scalar FogSequentialForward.fog[99].dispatcher jobs_class_1 2306289
scalar FogSequentialForward.fog[99].dispatcher remoteJobs_class_1 2291889
scalar FogSequentialForward.fog[99].dispatcher localJobs_class_1 14369
scalar FogSequentialForward.fog[99].dispatcher droppedJobsSLA_class_1 31
scalar FogSequentialForward.fog[99].server[0] rho 1
scalar FogSequentialForward.fog[99].server[0] congestionRatio 0
scalar FogSequentialForward.fog[99].server[0] totalJobs 14369
scalar FogSequentialForward.fog[99].server[0] droppedJobsQueue 1164
scalar FogSequentialForward.fog[99].server[0] droppedJobsTimout 0
scalar FogSequentialForward.fog[99].server[0] droppedJobsSLA 8689
scalar FogSequentialForward.fog[99].server[0] droppedJobsTotal 9853
scalar FogSequentialForward.sink avg_responseTime_1 13.475513007357
scalar FogSequentialForward.sink p90_responseTime_1 1.602160973566
scalar FogSequentialForward.sink med_responseTime_1 1.602160973566
scalar FogSequentialForward.sink avg_delayTime_1 0
scalar FogSequentialForward.sink p90_delayTime_1 0
scalar FogSequentialForward.sink med_delayTime_1 0
scalar FogSequentialForward.sink avg_queuingTime_1 10.213267861221
scalar FogSequentialForward.sink p90_queuingTime_1 0
scalar FogSequentialForward.sink med_queuingTime_1 0
scalar FogSequentialForward.sink avg_serviceTime_1 1.6725563299176
scalar FogSequentialForward.sink p90_serviceTime_1 1.513002676463
scalar FogSequentialForward.sink med_serviceTime_1 1.513002676463
scalar FogSequentialForward.sink avg_balancerTime_1 1.5896888162179
scalar FogSequentialForward.sink p90_balancerTime_1 0
scalar FogSequentialForward.sink med_balancerTime_1 0
scalar FogSequentialForward.sink avg_balancerCount_1 96.19094707894
scalar FogSequentialForward.sink p90_balancerCount_1 1
scalar FogSequentialForward.sink med_balancerCount_1 1

