version 2
run Fog-mul_10-rho_09-thr_10-3-20190714-09:21:32-115387
attr configname Fog-mul_10-rho_09-thr_10
attr datetime 20190714-09:21:32
attr experiment Fog-mul_10-rho_09-thr_10
attr inifile FogSequentialForward.ini
attr iterationvars ""
attr iterationvarsf ""
attr measurement ""
attr network FogSequentialForward
attr processid 115387
attr repetition 3
attr replication #3
attr resultdir results
attr runnumber 3
attr seedset 3
param FogSequentialForward.proctimeMul 1.0
param FogSequentialForward.rho 0.9
param FogSequentialForward.fog[*].dispatcher.thr 10
param FogSequentialForward.nSources 100
param FogSequentialForward.rho 0.9
param FogSequentialForward.proctimeMul 1.0
param FogSequentialForward.source[*].appId 1
param FogSequentialForward.source[*].realTime true
param FogSequentialForward.source[*].multiHop true
param FogSequentialForward.fog[*].nServers 1
param FogSequentialForward.fog[*].dispatcher.fanOut 1
param FogSequentialForward.fog[*].server[*].timeSlice -1s
param FogSequentialForward.fog[*].server[*].timeout -1s
param FogSequentialForward.fog[*].server[*].capacity 20
param FogSequentialForward.fog[*].server[*].fifo true
param FogSequentialForward.fog[*].server[*].maxServiceTime -1s
param FogSequentialForward.fog[*].dispatcher.thr 1

scalar FogSequentialForward.fog[0].dispatcher localJobs 15294
scalar FogSequentialForward.fog[0].dispatcher internalJobs 16479
scalar FogSequentialForward.fog[0].dispatcher externalJobs 5286038
scalar FogSequentialForward.fog[0].dispatcher remoteJobs 5286353
scalar FogSequentialForward.fog[0].dispatcher probeQueries 0
scalar FogSequentialForward.fog[0].dispatcher probeAnswers 0
scalar FogSequentialForward.fog[0].dispatcher droppedJobsSLA 870
scalar FogSequentialForward.fog[0].dispatcher jobs_class_1 5302517
scalar FogSequentialForward.fog[0].dispatcher remoteJobs_class_1 5286353
scalar FogSequentialForward.fog[0].dispatcher localJobs_class_1 15294
scalar FogSequentialForward.fog[0].dispatcher droppedJobsSLA_class_1 870
scalar FogSequentialForward.fog[0].server[0] rho 0.99999994039536
scalar FogSequentialForward.fog[0].server[0] congestionRatio 0
scalar FogSequentialForward.fog[0].server[0] totalJobs 15294
scalar FogSequentialForward.fog[0].server[0] droppedJobsQueue 1033
scalar FogSequentialForward.fog[0].server[0] droppedJobsTimout 0
scalar FogSequentialForward.fog[0].server[0] droppedJobsSLA 9606
scalar FogSequentialForward.fog[0].server[0] droppedJobsTotal 10639
scalar FogSequentialForward.fog[1].dispatcher localJobs 15284
scalar FogSequentialForward.fog[1].dispatcher internalJobs 16464
scalar FogSequentialForward.fog[1].dispatcher externalJobs 5282217
scalar FogSequentialForward.fog[1].dispatcher remoteJobs 5282455
scalar FogSequentialForward.fog[1].dispatcher probeQueries 0
scalar FogSequentialForward.fog[1].dispatcher probeAnswers 0
scalar FogSequentialForward.fog[1].dispatcher droppedJobsSLA 942
scalar FogSequentialForward.fog[1].dispatcher jobs_class_1 5298681
scalar FogSequentialForward.fog[1].dispatcher remoteJobs_class_1 5282455
scalar FogSequentialForward.fog[1].dispatcher localJobs_class_1 15284
scalar FogSequentialForward.fog[1].dispatcher droppedJobsSLA_class_1 942
scalar FogSequentialForward.fog[1].server[0] rho 1
scalar FogSequentialForward.fog[1].server[0] congestionRatio 0
scalar FogSequentialForward.fog[1].server[0] totalJobs 15284
scalar FogSequentialForward.fog[1].server[0] droppedJobsQueue 1032
scalar FogSequentialForward.fog[1].server[0] droppedJobsTimout 0
scalar FogSequentialForward.fog[1].server[0] droppedJobsSLA 9649
scalar FogSequentialForward.fog[1].server[0] droppedJobsTotal 10681
scalar FogSequentialForward.fog[2].dispatcher localJobs 15199
scalar FogSequentialForward.fog[2].dispatcher internalJobs 16285
scalar FogSequentialForward.fog[2].dispatcher externalJobs 5287358
scalar FogSequentialForward.fog[2].dispatcher remoteJobs 5287570
scalar FogSequentialForward.fog[2].dispatcher probeQueries 0
scalar FogSequentialForward.fog[2].dispatcher probeAnswers 0
scalar FogSequentialForward.fog[2].dispatcher droppedJobsSLA 874
scalar FogSequentialForward.fog[2].dispatcher jobs_class_1 5303643
scalar FogSequentialForward.fog[2].dispatcher remoteJobs_class_1 5287570
scalar FogSequentialForward.fog[2].dispatcher localJobs_class_1 15199
scalar FogSequentialForward.fog[2].dispatcher droppedJobsSLA_class_1 874
scalar FogSequentialForward.fog[2].server[0] rho 0.99999982118607
scalar FogSequentialForward.fog[2].server[0] congestionRatio 0
scalar FogSequentialForward.fog[2].server[0] totalJobs 15199
scalar FogSequentialForward.fog[2].server[0] droppedJobsQueue 1030
scalar FogSequentialForward.fog[2].server[0] droppedJobsTimout 0
scalar FogSequentialForward.fog[2].server[0] droppedJobsSLA 9566
scalar FogSequentialForward.fog[2].server[0] droppedJobsTotal 10596
scalar FogSequentialForward.fog[3].dispatcher localJobs 15267
scalar FogSequentialForward.fog[3].dispatcher internalJobs 16381
scalar FogSequentialForward.fog[3].dispatcher externalJobs 5283733
scalar FogSequentialForward.fog[3].dispatcher remoteJobs 5284051
scalar FogSequentialForward.fog[3].dispatcher probeQueries 0
scalar FogSequentialForward.fog[3].dispatcher probeAnswers 0
scalar FogSequentialForward.fog[3].dispatcher droppedJobsSLA 796
scalar FogSequentialForward.fog[3].dispatcher jobs_class_1 5300114
scalar FogSequentialForward.fog[3].dispatcher remoteJobs_class_1 5284051
scalar FogSequentialForward.fog[3].dispatcher localJobs_class_1 15267
scalar FogSequentialForward.fog[3].dispatcher droppedJobsSLA_class_1 796
scalar FogSequentialForward.fog[3].server[0] rho 1
scalar FogSequentialForward.fog[3].server[0] congestionRatio 0
scalar FogSequentialForward.fog[3].server[0] totalJobs 15267
scalar FogSequentialForward.fog[3].server[0] droppedJobsQueue 1029
scalar FogSequentialForward.fog[3].server[0] droppedJobsTimout 0
scalar FogSequentialForward.fog[3].server[0] droppedJobsSLA 9637
scalar FogSequentialForward.fog[3].server[0] droppedJobsTotal 10666
scalar FogSequentialForward.fog[4].dispatcher localJobs 15303
scalar FogSequentialForward.fog[4].dispatcher internalJobs 16061
scalar FogSequentialForward.fog[4].dispatcher externalJobs 5284098
scalar FogSequentialForward.fog[4].dispatcher remoteJobs 5283958
scalar FogSequentialForward.fog[4].dispatcher probeQueries 0
scalar FogSequentialForward.fog[4].dispatcher probeAnswers 0
scalar FogSequentialForward.fog[4].dispatcher droppedJobsSLA 898
scalar FogSequentialForward.fog[4].dispatcher jobs_class_1 5300159
scalar FogSequentialForward.fog[4].dispatcher remoteJobs_class_1 5283958
scalar FogSequentialForward.fog[4].dispatcher localJobs_class_1 15303
scalar FogSequentialForward.fog[4].dispatcher droppedJobsSLA_class_1 898
scalar FogSequentialForward.fog[4].server[0] rho 0.99999958276749
scalar FogSequentialForward.fog[4].server[0] congestionRatio 0
scalar FogSequentialForward.fog[4].server[0] totalJobs 15303
scalar FogSequentialForward.fog[4].server[0] droppedJobsQueue 1034
scalar FogSequentialForward.fog[4].server[0] droppedJobsTimout 0
scalar FogSequentialForward.fog[4].server[0] droppedJobsSLA 9675
scalar FogSequentialForward.fog[4].server[0] droppedJobsTotal 10709
scalar FogSequentialForward.fog[5].dispatcher localJobs 15321
scalar FogSequentialForward.fog[5].dispatcher internalJobs 16242
scalar FogSequentialForward.fog[5].dispatcher externalJobs 5282314
scalar FogSequentialForward.fog[5].dispatcher remoteJobs 5282363
scalar FogSequentialForward.fog[5].dispatcher probeQueries 0
scalar FogSequentialForward.fog[5].dispatcher probeAnswers 0
scalar FogSequentialForward.fog[5].dispatcher droppedJobsSLA 872
scalar FogSequentialForward.fog[5].dispatcher jobs_class_1 5298556
scalar FogSequentialForward.fog[5].dispatcher remoteJobs_class_1 5282363
scalar FogSequentialForward.fog[5].dispatcher localJobs_class_1 15321
scalar FogSequentialForward.fog[5].dispatcher droppedJobsSLA_class_1 872
scalar FogSequentialForward.fog[5].server[0] rho 1
scalar FogSequentialForward.fog[5].server[0] congestionRatio 0
scalar FogSequentialForward.fog[5].server[0] totalJobs 15321
scalar FogSequentialForward.fog[5].server[0] droppedJobsQueue 1036
scalar FogSequentialForward.fog[5].server[0] droppedJobsTimout 0
scalar FogSequentialForward.fog[5].server[0] droppedJobsSLA 9665
scalar FogSequentialForward.fog[5].server[0] droppedJobsTotal 10701
scalar FogSequentialForward.fog[6].dispatcher localJobs 15225
scalar FogSequentialForward.fog[6].dispatcher internalJobs 16156
scalar FogSequentialForward.fog[6].dispatcher externalJobs 5281807
scalar FogSequentialForward.fog[6].dispatcher remoteJobs 5281856
scalar FogSequentialForward.fog[6].dispatcher probeQueries 0
scalar FogSequentialForward.fog[6].dispatcher probeAnswers 0
scalar FogSequentialForward.fog[6].dispatcher droppedJobsSLA 882
scalar FogSequentialForward.fog[6].dispatcher jobs_class_1 5297963
scalar FogSequentialForward.fog[6].dispatcher remoteJobs_class_1 5281856
scalar FogSequentialForward.fog[6].dispatcher localJobs_class_1 15225
scalar FogSequentialForward.fog[6].dispatcher droppedJobsSLA_class_1 882
scalar FogSequentialForward.fog[6].server[0] rho 1
scalar FogSequentialForward.fog[6].server[0] congestionRatio 0
scalar FogSequentialForward.fog[6].server[0] totalJobs 15225
scalar FogSequentialForward.fog[6].server[0] droppedJobsQueue 1028
scalar FogSequentialForward.fog[6].server[0] droppedJobsTimout 0
scalar FogSequentialForward.fog[6].server[0] droppedJobsSLA 9585
scalar FogSequentialForward.fog[6].server[0] droppedJobsTotal 10613
scalar FogSequentialForward.fog[7].dispatcher localJobs 15292
scalar FogSequentialForward.fog[7].dispatcher internalJobs 16101
scalar FogSequentialForward.fog[7].dispatcher externalJobs 5283053
scalar FogSequentialForward.fog[7].dispatcher remoteJobs 5282939
scalar FogSequentialForward.fog[7].dispatcher probeQueries 0
scalar FogSequentialForward.fog[7].dispatcher probeAnswers 0
scalar FogSequentialForward.fog[7].dispatcher droppedJobsSLA 923
scalar FogSequentialForward.fog[7].dispatcher jobs_class_1 5299154
scalar FogSequentialForward.fog[7].dispatcher remoteJobs_class_1 5282939
scalar FogSequentialForward.fog[7].dispatcher localJobs_class_1 15292
scalar FogSequentialForward.fog[7].dispatcher droppedJobsSLA_class_1 923
scalar FogSequentialForward.fog[7].server[0] rho 1
scalar FogSequentialForward.fog[7].server[0] congestionRatio 0
scalar FogSequentialForward.fog[7].server[0] totalJobs 15292
scalar FogSequentialForward.fog[7].server[0] droppedJobsQueue 1031
scalar FogSequentialForward.fog[7].server[0] droppedJobsTimout 0
scalar FogSequentialForward.fog[7].server[0] droppedJobsSLA 9624
scalar FogSequentialForward.fog[7].server[0] droppedJobsTotal 10655
scalar FogSequentialForward.fog[8].dispatcher localJobs 15347
scalar FogSequentialForward.fog[8].dispatcher internalJobs 16542
scalar FogSequentialForward.fog[8].dispatcher externalJobs 5284234
scalar FogSequentialForward.fog[8].dispatcher remoteJobs 5284474
scalar FogSequentialForward.fog[8].dispatcher probeQueries 0
scalar FogSequentialForward.fog[8].dispatcher probeAnswers 0
scalar FogSequentialForward.fog[8].dispatcher droppedJobsSLA 955
scalar FogSequentialForward.fog[8].dispatcher jobs_class_1 5300776
scalar FogSequentialForward.fog[8].dispatcher remoteJobs_class_1 5284474
scalar FogSequentialForward.fog[8].dispatcher localJobs_class_1 15347
scalar FogSequentialForward.fog[8].dispatcher droppedJobsSLA_class_1 955
scalar FogSequentialForward.fog[8].server[0] rho 1
scalar FogSequentialForward.fog[8].server[0] congestionRatio 0
scalar FogSequentialForward.fog[8].server[0] totalJobs 15347
scalar FogSequentialForward.fog[8].server[0] droppedJobsQueue 1037
scalar FogSequentialForward.fog[8].server[0] droppedJobsTimout 0
scalar FogSequentialForward.fog[8].server[0] droppedJobsSLA 9750
scalar FogSequentialForward.fog[8].server[0] droppedJobsTotal 10787
scalar FogSequentialForward.fog[9].dispatcher localJobs 15351
scalar FogSequentialForward.fog[9].dispatcher internalJobs 16449
scalar FogSequentialForward.fog[9].dispatcher externalJobs 5284110
scalar FogSequentialForward.fog[9].dispatcher remoteJobs 5284292
scalar FogSequentialForward.fog[9].dispatcher probeQueries 0
scalar FogSequentialForward.fog[9].dispatcher probeAnswers 0
scalar FogSequentialForward.fog[9].dispatcher droppedJobsSLA 916
scalar FogSequentialForward.fog[9].dispatcher jobs_class_1 5300559
scalar FogSequentialForward.fog[9].dispatcher remoteJobs_class_1 5284292
scalar FogSequentialForward.fog[9].dispatcher localJobs_class_1 15351
scalar FogSequentialForward.fog[9].dispatcher droppedJobsSLA_class_1 916
scalar FogSequentialForward.fog[9].server[0] rho 1
scalar FogSequentialForward.fog[9].server[0] congestionRatio 0
scalar FogSequentialForward.fog[9].server[0] totalJobs 15351
scalar FogSequentialForward.fog[9].server[0] droppedJobsQueue 1035
scalar FogSequentialForward.fog[9].server[0] droppedJobsTimout 0
scalar FogSequentialForward.fog[9].server[0] droppedJobsSLA 9668
scalar FogSequentialForward.fog[9].server[0] droppedJobsTotal 10703
scalar FogSequentialForward.fog[10].dispatcher localJobs 15216
scalar FogSequentialForward.fog[10].dispatcher internalJobs 16374
scalar FogSequentialForward.fog[10].dispatcher externalJobs 5289189
scalar FogSequentialForward.fog[10].dispatcher remoteJobs 5289433
scalar FogSequentialForward.fog[10].dispatcher probeQueries 0
scalar FogSequentialForward.fog[10].dispatcher probeAnswers 0
scalar FogSequentialForward.fog[10].dispatcher droppedJobsSLA 914
scalar FogSequentialForward.fog[10].dispatcher jobs_class_1 5305563
scalar FogSequentialForward.fog[10].dispatcher remoteJobs_class_1 5289433
scalar FogSequentialForward.fog[10].dispatcher localJobs_class_1 15216
scalar FogSequentialForward.fog[10].dispatcher droppedJobsSLA_class_1 914
scalar FogSequentialForward.fog[10].server[0] rho 1
scalar FogSequentialForward.fog[10].server[0] congestionRatio 0
scalar FogSequentialForward.fog[10].server[0] totalJobs 15216
scalar FogSequentialForward.fog[10].server[0] droppedJobsQueue 1029
scalar FogSequentialForward.fog[10].server[0] droppedJobsTimout 0
scalar FogSequentialForward.fog[10].server[0] droppedJobsSLA 9567
scalar FogSequentialForward.fog[10].server[0] droppedJobsTotal 10596
scalar FogSequentialForward.fog[11].dispatcher localJobs 15358
scalar FogSequentialForward.fog[11].dispatcher internalJobs 16236
scalar FogSequentialForward.fog[11].dispatcher externalJobs 5286605
scalar FogSequentialForward.fog[11].dispatcher remoteJobs 5286600
scalar FogSequentialForward.fog[11].dispatcher probeQueries 0
scalar FogSequentialForward.fog[11].dispatcher probeAnswers 0
scalar FogSequentialForward.fog[11].dispatcher droppedJobsSLA 883
scalar FogSequentialForward.fog[11].dispatcher jobs_class_1 5302841
scalar FogSequentialForward.fog[11].dispatcher remoteJobs_class_1 5286600
scalar FogSequentialForward.fog[11].dispatcher localJobs_class_1 15358
scalar FogSequentialForward.fog[11].dispatcher droppedJobsSLA_class_1 883
scalar FogSequentialForward.fog[11].server[0] rho 0.9999253153801
scalar FogSequentialForward.fog[11].server[0] congestionRatio 0
scalar FogSequentialForward.fog[11].server[0] totalJobs 15358
scalar FogSequentialForward.fog[11].server[0] droppedJobsQueue 1038
scalar FogSequentialForward.fog[11].server[0] droppedJobsTimout 0
scalar FogSequentialForward.fog[11].server[0] droppedJobsSLA 9617
scalar FogSequentialForward.fog[11].server[0] droppedJobsTotal 10655
scalar FogSequentialForward.fog[12].dispatcher localJobs 15337
scalar FogSequentialForward.fog[12].dispatcher internalJobs 16084
scalar FogSequentialForward.fog[12].dispatcher externalJobs 5285626
scalar FogSequentialForward.fog[12].dispatcher remoteJobs 5285438
scalar FogSequentialForward.fog[12].dispatcher probeQueries 0
scalar FogSequentialForward.fog[12].dispatcher probeAnswers 0
scalar FogSequentialForward.fog[12].dispatcher droppedJobsSLA 935
scalar FogSequentialForward.fog[12].dispatcher jobs_class_1 5301710
scalar FogSequentialForward.fog[12].dispatcher remoteJobs_class_1 5285438
scalar FogSequentialForward.fog[12].dispatcher localJobs_class_1 15337
scalar FogSequentialForward.fog[12].dispatcher droppedJobsSLA_class_1 935
scalar FogSequentialForward.fog[12].server[0] rho 1
scalar FogSequentialForward.fog[12].server[0] congestionRatio 0
scalar FogSequentialForward.fog[12].server[0] totalJobs 15337
scalar FogSequentialForward.fog[12].server[0] droppedJobsQueue 1035
scalar FogSequentialForward.fog[12].server[0] droppedJobsTimout 0
scalar FogSequentialForward.fog[12].server[0] droppedJobsSLA 9675
scalar FogSequentialForward.fog[12].server[0] droppedJobsTotal 10710
scalar FogSequentialForward.fog[13].dispatcher localJobs 15254
scalar FogSequentialForward.fog[13].dispatcher internalJobs 16167
scalar FogSequentialForward.fog[13].dispatcher externalJobs 5281326
scalar FogSequentialForward.fog[13].dispatcher remoteJobs 5281312
scalar FogSequentialForward.fog[13].dispatcher probeQueries 0
scalar FogSequentialForward.fog[13].dispatcher probeAnswers 0
scalar FogSequentialForward.fog[13].dispatcher droppedJobsSLA 927
scalar FogSequentialForward.fog[13].dispatcher jobs_class_1 5297493
scalar FogSequentialForward.fog[13].dispatcher remoteJobs_class_1 5281312
scalar FogSequentialForward.fog[13].dispatcher localJobs_class_1 15254
scalar FogSequentialForward.fog[13].dispatcher droppedJobsSLA_class_1 927
scalar FogSequentialForward.fog[13].server[0] rho 0.99999994039536
scalar FogSequentialForward.fog[13].server[0] congestionRatio 0
scalar FogSequentialForward.fog[13].server[0] totalJobs 15254
scalar FogSequentialForward.fog[13].server[0] droppedJobsQueue 1029
scalar FogSequentialForward.fog[13].server[0] droppedJobsTimout 0
scalar FogSequentialForward.fog[13].server[0] droppedJobsSLA 9623
scalar FogSequentialForward.fog[13].server[0] droppedJobsTotal 10652
scalar FogSequentialForward.fog[14].dispatcher localJobs 15346
scalar FogSequentialForward.fog[14].dispatcher internalJobs 16393
scalar FogSequentialForward.fog[14].dispatcher externalJobs 5285818
scalar FogSequentialForward.fog[14].dispatcher remoteJobs 5285953
scalar FogSequentialForward.fog[14].dispatcher probeQueries 0
scalar FogSequentialForward.fog[14].dispatcher probeAnswers 0
scalar FogSequentialForward.fog[14].dispatcher droppedJobsSLA 912
scalar FogSequentialForward.fog[14].dispatcher jobs_class_1 5302211
scalar FogSequentialForward.fog[14].dispatcher remoteJobs_class_1 5285953
scalar FogSequentialForward.fog[14].dispatcher localJobs_class_1 15346
scalar FogSequentialForward.fog[14].dispatcher droppedJobsSLA_class_1 912
scalar FogSequentialForward.fog[14].server[0] rho 1
scalar FogSequentialForward.fog[14].server[0] congestionRatio 0
scalar FogSequentialForward.fog[14].server[0] totalJobs 15346
scalar FogSequentialForward.fog[14].server[0] droppedJobsQueue 1036
scalar FogSequentialForward.fog[14].server[0] droppedJobsTimout 0
scalar FogSequentialForward.fog[14].server[0] droppedJobsSLA 9706
scalar FogSequentialForward.fog[14].server[0] droppedJobsTotal 10742
scalar FogSequentialForward.fog[15].dispatcher localJobs 15336
scalar FogSequentialForward.fog[15].dispatcher internalJobs 16171
scalar FogSequentialForward.fog[15].dispatcher externalJobs 5281126
scalar FogSequentialForward.fog[15].dispatcher remoteJobs 5281044
scalar FogSequentialForward.fog[15].dispatcher probeQueries 0
scalar FogSequentialForward.fog[15].dispatcher probeAnswers 0
scalar FogSequentialForward.fog[15].dispatcher droppedJobsSLA 917
scalar FogSequentialForward.fog[15].dispatcher jobs_class_1 5297297
scalar FogSequentialForward.fog[15].dispatcher remoteJobs_class_1 5281044
scalar FogSequentialForward.fog[15].dispatcher localJobs_class_1 15336
scalar FogSequentialForward.fog[15].dispatcher droppedJobsSLA_class_1 917
scalar FogSequentialForward.fog[15].server[0] rho 1
scalar FogSequentialForward.fog[15].server[0] congestionRatio 0
scalar FogSequentialForward.fog[15].server[0] totalJobs 15336
scalar FogSequentialForward.fog[15].server[0] droppedJobsQueue 1033
scalar FogSequentialForward.fog[15].server[0] droppedJobsTimout 0
scalar FogSequentialForward.fog[15].server[0] droppedJobsSLA 9626
scalar FogSequentialForward.fog[15].server[0] droppedJobsTotal 10659
scalar FogSequentialForward.fog[16].dispatcher localJobs 15343
scalar FogSequentialForward.fog[16].dispatcher internalJobs 16245
scalar FogSequentialForward.fog[16].dispatcher externalJobs 5283840
scalar FogSequentialForward.fog[16].dispatcher remoteJobs 5283812
scalar FogSequentialForward.fog[16].dispatcher probeQueries 0
scalar FogSequentialForward.fog[16].dispatcher probeAnswers 0
scalar FogSequentialForward.fog[16].dispatcher droppedJobsSLA 930
scalar FogSequentialForward.fog[16].dispatcher jobs_class_1 5300085
scalar FogSequentialForward.fog[16].dispatcher remoteJobs_class_1 5283812
scalar FogSequentialForward.fog[16].dispatcher localJobs_class_1 15343
scalar FogSequentialForward.fog[16].dispatcher droppedJobsSLA_class_1 930
scalar FogSequentialForward.fog[16].server[0] rho 1
scalar FogSequentialForward.fog[16].server[0] congestionRatio 0
scalar FogSequentialForward.fog[16].server[0] totalJobs 15343
scalar FogSequentialForward.fog[16].server[0] droppedJobsQueue 1034
scalar FogSequentialForward.fog[16].server[0] droppedJobsTimout 0
scalar FogSequentialForward.fog[16].server[0] droppedJobsSLA 9695
scalar FogSequentialForward.fog[16].server[0] droppedJobsTotal 10729
scalar FogSequentialForward.fog[17].dispatcher localJobs 15415
scalar FogSequentialForward.fog[17].dispatcher internalJobs 16039
scalar FogSequentialForward.fog[17].dispatcher externalJobs 5283039
scalar FogSequentialForward.fog[17].dispatcher remoteJobs 5282733
scalar FogSequentialForward.fog[17].dispatcher probeQueries 0
scalar FogSequentialForward.fog[17].dispatcher probeAnswers 0
scalar FogSequentialForward.fog[17].dispatcher droppedJobsSLA 930
scalar FogSequentialForward.fog[17].dispatcher jobs_class_1 5299078
scalar FogSequentialForward.fog[17].dispatcher remoteJobs_class_1 5282733
scalar FogSequentialForward.fog[17].dispatcher localJobs_class_1 15415
scalar FogSequentialForward.fog[17].dispatcher droppedJobsSLA_class_1 930
scalar FogSequentialForward.fog[17].server[0] rho 1
scalar FogSequentialForward.fog[17].server[0] congestionRatio 0
scalar FogSequentialForward.fog[17].server[0] totalJobs 15415
scalar FogSequentialForward.fog[17].server[0] droppedJobsQueue 1041
scalar FogSequentialForward.fog[17].server[0] droppedJobsTimout 0
scalar FogSequentialForward.fog[17].server[0] droppedJobsSLA 9735
scalar FogSequentialForward.fog[17].server[0] droppedJobsTotal 10776
scalar FogSequentialForward.fog[18].dispatcher localJobs 15344
scalar FogSequentialForward.fog[18].dispatcher internalJobs 15931
scalar FogSequentialForward.fog[18].dispatcher externalJobs 5285655
scalar FogSequentialForward.fog[18].dispatcher remoteJobs 5285332
scalar FogSequentialForward.fog[18].dispatcher probeQueries 0
scalar FogSequentialForward.fog[18].dispatcher probeAnswers 0
scalar FogSequentialForward.fog[18].dispatcher droppedJobsSLA 910
scalar FogSequentialForward.fog[18].dispatcher jobs_class_1 5301586
scalar FogSequentialForward.fog[18].dispatcher remoteJobs_class_1 5285332
scalar FogSequentialForward.fog[18].dispatcher localJobs_class_1 15344
scalar FogSequentialForward.fog[18].dispatcher droppedJobsSLA_class_1 910
scalar FogSequentialForward.fog[18].server[0] rho 1
scalar FogSequentialForward.fog[18].server[0] congestionRatio 0
scalar FogSequentialForward.fog[18].server[0] totalJobs 15344
scalar FogSequentialForward.fog[18].server[0] droppedJobsQueue 1037
scalar FogSequentialForward.fog[18].server[0] droppedJobsTimout 0
scalar FogSequentialForward.fog[18].server[0] droppedJobsSLA 9722
scalar FogSequentialForward.fog[18].server[0] droppedJobsTotal 10759
scalar FogSequentialForward.fog[19].dispatcher localJobs 15266
scalar FogSequentialForward.fog[19].dispatcher internalJobs 16358
scalar FogSequentialForward.fog[19].dispatcher externalJobs 5280706
scalar FogSequentialForward.fog[19].dispatcher remoteJobs 5280876
scalar FogSequentialForward.fog[19].dispatcher probeQueries 0
scalar FogSequentialForward.fog[19].dispatcher probeAnswers 0
scalar FogSequentialForward.fog[19].dispatcher droppedJobsSLA 922
scalar FogSequentialForward.fog[19].dispatcher jobs_class_1 5297064
scalar FogSequentialForward.fog[19].dispatcher remoteJobs_class_1 5280876
scalar FogSequentialForward.fog[19].dispatcher localJobs_class_1 15266
scalar FogSequentialForward.fog[19].dispatcher droppedJobsSLA_class_1 922
scalar FogSequentialForward.fog[19].server[0] rho 1
scalar FogSequentialForward.fog[19].server[0] congestionRatio 0
scalar FogSequentialForward.fog[19].server[0] totalJobs 15266
scalar FogSequentialForward.fog[19].server[0] droppedJobsQueue 1029
scalar FogSequentialForward.fog[19].server[0] droppedJobsTimout 0
scalar FogSequentialForward.fog[19].server[0] droppedJobsSLA 9625
scalar FogSequentialForward.fog[19].server[0] droppedJobsTotal 10654
scalar FogSequentialForward.fog[20].dispatcher localJobs 15292
scalar FogSequentialForward.fog[20].dispatcher internalJobs 16045
scalar FogSequentialForward.fog[20].dispatcher externalJobs 5284315
scalar FogSequentialForward.fog[20].dispatcher remoteJobs 5284188
scalar FogSequentialForward.fog[20].dispatcher probeQueries 0
scalar FogSequentialForward.fog[20].dispatcher probeAnswers 0
scalar FogSequentialForward.fog[20].dispatcher droppedJobsSLA 880
scalar FogSequentialForward.fog[20].dispatcher jobs_class_1 5300360
scalar FogSequentialForward.fog[20].dispatcher remoteJobs_class_1 5284188
scalar FogSequentialForward.fog[20].dispatcher localJobs_class_1 15292
scalar FogSequentialForward.fog[20].dispatcher droppedJobsSLA_class_1 880
scalar FogSequentialForward.fog[20].server[0] rho 1
scalar FogSequentialForward.fog[20].server[0] congestionRatio 0
scalar FogSequentialForward.fog[20].server[0] totalJobs 15292
scalar FogSequentialForward.fog[20].server[0] droppedJobsQueue 1031
scalar FogSequentialForward.fog[20].server[0] droppedJobsTimout 0
scalar FogSequentialForward.fog[20].server[0] droppedJobsSLA 9632
scalar FogSequentialForward.fog[20].server[0] droppedJobsTotal 10663
scalar FogSequentialForward.fog[21].dispatcher localJobs 15311
scalar FogSequentialForward.fog[21].dispatcher internalJobs 16279
scalar FogSequentialForward.fog[21].dispatcher externalJobs 5287099
scalar FogSequentialForward.fog[21].dispatcher remoteJobs 5287144
scalar FogSequentialForward.fog[21].dispatcher probeQueries 0
scalar FogSequentialForward.fog[21].dispatcher probeAnswers 0
scalar FogSequentialForward.fog[21].dispatcher droppedJobsSLA 923
scalar FogSequentialForward.fog[21].dispatcher jobs_class_1 5303378
scalar FogSequentialForward.fog[21].dispatcher remoteJobs_class_1 5287144
scalar FogSequentialForward.fog[21].dispatcher localJobs_class_1 15311
scalar FogSequentialForward.fog[21].dispatcher droppedJobsSLA_class_1 923
scalar FogSequentialForward.fog[21].server[0] rho 1
scalar FogSequentialForward.fog[21].server[0] congestionRatio 0
scalar FogSequentialForward.fog[21].server[0] totalJobs 15311
scalar FogSequentialForward.fog[21].server[0] droppedJobsQueue 1032
scalar FogSequentialForward.fog[21].server[0] droppedJobsTimout 0
scalar FogSequentialForward.fog[21].server[0] droppedJobsSLA 9660
scalar FogSequentialForward.fog[21].server[0] droppedJobsTotal 10692
scalar FogSequentialForward.fog[22].dispatcher localJobs 15271
scalar FogSequentialForward.fog[22].dispatcher internalJobs 16285
scalar FogSequentialForward.fog[22].dispatcher externalJobs 5284261
scalar FogSequentialForward.fog[22].dispatcher remoteJobs 5284328
scalar FogSequentialForward.fog[22].dispatcher probeQueries 0
scalar FogSequentialForward.fog[22].dispatcher probeAnswers 0
scalar FogSequentialForward.fog[22].dispatcher droppedJobsSLA 947
scalar FogSequentialForward.fog[22].dispatcher jobs_class_1 5300546
scalar FogSequentialForward.fog[22].dispatcher remoteJobs_class_1 5284328
scalar FogSequentialForward.fog[22].dispatcher localJobs_class_1 15271
scalar FogSequentialForward.fog[22].dispatcher droppedJobsSLA_class_1 947
scalar FogSequentialForward.fog[22].server[0] rho 0.99999976158142
scalar FogSequentialForward.fog[22].server[0] congestionRatio 0
scalar FogSequentialForward.fog[22].server[0] totalJobs 15271
scalar FogSequentialForward.fog[22].server[0] droppedJobsQueue 1032
scalar FogSequentialForward.fog[22].server[0] droppedJobsTimout 0
scalar FogSequentialForward.fog[22].server[0] droppedJobsSLA 9641
scalar FogSequentialForward.fog[22].server[0] droppedJobsTotal 10673
scalar FogSequentialForward.fog[23].dispatcher localJobs 15336
scalar FogSequentialForward.fog[23].dispatcher internalJobs 16350
scalar FogSequentialForward.fog[23].dispatcher externalJobs 5282170
scalar FogSequentialForward.fog[23].dispatcher remoteJobs 5282261
scalar FogSequentialForward.fog[23].dispatcher probeQueries 0
scalar FogSequentialForward.fog[23].dispatcher probeAnswers 0
scalar FogSequentialForward.fog[23].dispatcher droppedJobsSLA 923
scalar FogSequentialForward.fog[23].dispatcher jobs_class_1 5298520
scalar FogSequentialForward.fog[23].dispatcher remoteJobs_class_1 5282261
scalar FogSequentialForward.fog[23].dispatcher localJobs_class_1 15336
scalar FogSequentialForward.fog[23].dispatcher droppedJobsSLA_class_1 923
scalar FogSequentialForward.fog[23].server[0] rho 0.99999964237213
scalar FogSequentialForward.fog[23].server[0] congestionRatio 0
scalar FogSequentialForward.fog[23].server[0] totalJobs 15336
scalar FogSequentialForward.fog[23].server[0] droppedJobsQueue 1031
scalar FogSequentialForward.fog[23].server[0] droppedJobsTimout 0
scalar FogSequentialForward.fog[23].server[0] droppedJobsSLA 9657
scalar FogSequentialForward.fog[23].server[0] droppedJobsTotal 10688
scalar FogSequentialForward.fog[24].dispatcher localJobs 15261
scalar FogSequentialForward.fog[24].dispatcher internalJobs 16175
scalar FogSequentialForward.fog[24].dispatcher externalJobs 5285919
scalar FogSequentialForward.fog[24].dispatcher remoteJobs 5285977
scalar FogSequentialForward.fog[24].dispatcher probeQueries 0
scalar FogSequentialForward.fog[24].dispatcher probeAnswers 0
scalar FogSequentialForward.fog[24].dispatcher droppedJobsSLA 856
scalar FogSequentialForward.fog[24].dispatcher jobs_class_1 5302094
scalar FogSequentialForward.fog[24].dispatcher remoteJobs_class_1 5285977
scalar FogSequentialForward.fog[24].dispatcher localJobs_class_1 15261
scalar FogSequentialForward.fog[24].dispatcher droppedJobsSLA_class_1 856
scalar FogSequentialForward.fog[24].server[0] rho 1
scalar FogSequentialForward.fog[24].server[0] congestionRatio 0
scalar FogSequentialForward.fog[24].server[0] totalJobs 15261
scalar FogSequentialForward.fog[24].server[0] droppedJobsQueue 1035
scalar FogSequentialForward.fog[24].server[0] droppedJobsTimout 0
scalar FogSequentialForward.fog[24].server[0] droppedJobsSLA 9613
scalar FogSequentialForward.fog[24].server[0] droppedJobsTotal 10648
scalar FogSequentialForward.fog[25].dispatcher localJobs 15308
scalar FogSequentialForward.fog[25].dispatcher internalJobs 16221
scalar FogSequentialForward.fog[25].dispatcher externalJobs 5285442
scalar FogSequentialForward.fog[25].dispatcher remoteJobs 5285471
scalar FogSequentialForward.fog[25].dispatcher probeQueries 0
scalar FogSequentialForward.fog[25].dispatcher probeAnswers 0
scalar FogSequentialForward.fog[25].dispatcher droppedJobsSLA 884
scalar FogSequentialForward.fog[25].dispatcher jobs_class_1 5301663
scalar FogSequentialForward.fog[25].dispatcher remoteJobs_class_1 5285471
scalar FogSequentialForward.fog[25].dispatcher localJobs_class_1 15308
scalar FogSequentialForward.fog[25].dispatcher droppedJobsSLA_class_1 884
scalar FogSequentialForward.fog[25].server[0] rho 1
scalar FogSequentialForward.fog[25].server[0] congestionRatio 0
scalar FogSequentialForward.fog[25].server[0] totalJobs 15308
scalar FogSequentialForward.fog[25].server[0] droppedJobsQueue 1031
scalar FogSequentialForward.fog[25].server[0] droppedJobsTimout 0
scalar FogSequentialForward.fog[25].server[0] droppedJobsSLA 9660
scalar FogSequentialForward.fog[25].server[0] droppedJobsTotal 10691
scalar FogSequentialForward.fog[26].dispatcher localJobs 15417
scalar FogSequentialForward.fog[26].dispatcher internalJobs 16271
scalar FogSequentialForward.fog[26].dispatcher externalJobs 5285375
scalar FogSequentialForward.fog[26].dispatcher remoteJobs 5285248
scalar FogSequentialForward.fog[26].dispatcher probeQueries 0
scalar FogSequentialForward.fog[26].dispatcher probeAnswers 0
scalar FogSequentialForward.fog[26].dispatcher droppedJobsSLA 981
scalar FogSequentialForward.fog[26].dispatcher jobs_class_1 5301646
scalar FogSequentialForward.fog[26].dispatcher remoteJobs_class_1 5285248
scalar FogSequentialForward.fog[26].dispatcher localJobs_class_1 15417
scalar FogSequentialForward.fog[26].dispatcher droppedJobsSLA_class_1 981
scalar FogSequentialForward.fog[26].server[0] rho 1
scalar FogSequentialForward.fog[26].server[0] congestionRatio 0
scalar FogSequentialForward.fog[26].server[0] totalJobs 15417
scalar FogSequentialForward.fog[26].server[0] droppedJobsQueue 1043
scalar FogSequentialForward.fog[26].server[0] droppedJobsTimout 0
scalar FogSequentialForward.fog[26].server[0] droppedJobsSLA 9803
scalar FogSequentialForward.fog[26].server[0] droppedJobsTotal 10846
scalar FogSequentialForward.fog[27].dispatcher localJobs 15330
scalar FogSequentialForward.fog[27].dispatcher internalJobs 16391
scalar FogSequentialForward.fog[27].dispatcher externalJobs 5280808
scalar FogSequentialForward.fog[27].dispatcher remoteJobs 5280960
scalar FogSequentialForward.fog[27].dispatcher probeQueries 0
scalar FogSequentialForward.fog[27].dispatcher probeAnswers 0
scalar FogSequentialForward.fog[27].dispatcher droppedJobsSLA 909
scalar FogSequentialForward.fog[27].dispatcher jobs_class_1 5297199
scalar FogSequentialForward.fog[27].dispatcher remoteJobs_class_1 5280960
scalar FogSequentialForward.fog[27].dispatcher localJobs_class_1 15330
scalar FogSequentialForward.fog[27].dispatcher droppedJobsSLA_class_1 909
scalar FogSequentialForward.fog[27].server[0] rho 1
scalar FogSequentialForward.fog[27].server[0] congestionRatio 0
scalar FogSequentialForward.fog[27].server[0] totalJobs 15330
scalar FogSequentialForward.fog[27].server[0] droppedJobsQueue 1033
scalar FogSequentialForward.fog[27].server[0] droppedJobsTimout 0
scalar FogSequentialForward.fog[27].server[0] droppedJobsSLA 9686
scalar FogSequentialForward.fog[27].server[0] droppedJobsTotal 10719
scalar FogSequentialForward.fog[28].dispatcher localJobs 15302
scalar FogSequentialForward.fog[28].dispatcher internalJobs 16444
scalar FogSequentialForward.fog[28].dispatcher externalJobs 5283476
scalar FogSequentialForward.fog[28].dispatcher remoteJobs 5283710
scalar FogSequentialForward.fog[28].dispatcher probeQueries 0
scalar FogSequentialForward.fog[28].dispatcher probeAnswers 0
scalar FogSequentialForward.fog[28].dispatcher droppedJobsSLA 908
scalar FogSequentialForward.fog[28].dispatcher jobs_class_1 5299920
scalar FogSequentialForward.fog[28].dispatcher remoteJobs_class_1 5283710
scalar FogSequentialForward.fog[28].dispatcher localJobs_class_1 15302
scalar FogSequentialForward.fog[28].dispatcher droppedJobsSLA_class_1 908
scalar FogSequentialForward.fog[28].server[0] rho 1
scalar FogSequentialForward.fog[28].server[0] congestionRatio 0
scalar FogSequentialForward.fog[28].server[0] totalJobs 15302
scalar FogSequentialForward.fog[28].server[0] droppedJobsQueue 1037
scalar FogSequentialForward.fog[28].server[0] droppedJobsTimout 0
scalar FogSequentialForward.fog[28].server[0] droppedJobsSLA 9609
scalar FogSequentialForward.fog[28].server[0] droppedJobsTotal 10646
scalar FogSequentialForward.fog[29].dispatcher localJobs 15258
scalar FogSequentialForward.fog[29].dispatcher internalJobs 15969
scalar FogSequentialForward.fog[29].dispatcher externalJobs 5283194
scalar FogSequentialForward.fog[29].dispatcher remoteJobs 5282973
scalar FogSequentialForward.fog[29].dispatcher probeQueries 0
scalar FogSequentialForward.fog[29].dispatcher probeAnswers 0
scalar FogSequentialForward.fog[29].dispatcher droppedJobsSLA 932
scalar FogSequentialForward.fog[29].dispatcher jobs_class_1 5299163
scalar FogSequentialForward.fog[29].dispatcher remoteJobs_class_1 5282973
scalar FogSequentialForward.fog[29].dispatcher localJobs_class_1 15258
scalar FogSequentialForward.fog[29].dispatcher droppedJobsSLA_class_1 932
scalar FogSequentialForward.fog[29].server[0] rho 1
scalar FogSequentialForward.fog[29].server[0] congestionRatio 0
scalar FogSequentialForward.fog[29].server[0] totalJobs 15258
scalar FogSequentialForward.fog[29].server[0] droppedJobsQueue 1027
scalar FogSequentialForward.fog[29].server[0] droppedJobsTimout 0
scalar FogSequentialForward.fog[29].server[0] droppedJobsSLA 9609
scalar FogSequentialForward.fog[29].server[0] droppedJobsTotal 10636
scalar FogSequentialForward.fog[30].dispatcher localJobs 15279
scalar FogSequentialForward.fog[30].dispatcher internalJobs 16039
scalar FogSequentialForward.fog[30].dispatcher externalJobs 5286798
scalar FogSequentialForward.fog[30].dispatcher remoteJobs 5286661
scalar FogSequentialForward.fog[30].dispatcher probeQueries 0
scalar FogSequentialForward.fog[30].dispatcher probeAnswers 0
scalar FogSequentialForward.fog[30].dispatcher droppedJobsSLA 897
scalar FogSequentialForward.fog[30].dispatcher jobs_class_1 5302837
scalar FogSequentialForward.fog[30].dispatcher remoteJobs_class_1 5286661
scalar FogSequentialForward.fog[30].dispatcher localJobs_class_1 15279
scalar FogSequentialForward.fog[30].dispatcher droppedJobsSLA_class_1 897
scalar FogSequentialForward.fog[30].server[0] rho 0.99999982118607
scalar FogSequentialForward.fog[30].server[0] congestionRatio 0
scalar FogSequentialForward.fog[30].server[0] totalJobs 15279
scalar FogSequentialForward.fog[30].server[0] droppedJobsQueue 1033
scalar FogSequentialForward.fog[30].server[0] droppedJobsTimout 0
scalar FogSequentialForward.fog[30].server[0] droppedJobsSLA 9657
scalar FogSequentialForward.fog[30].server[0] droppedJobsTotal 10690
scalar FogSequentialForward.fog[31].dispatcher localJobs 15345
scalar FogSequentialForward.fog[31].dispatcher internalJobs 16407
scalar FogSequentialForward.fog[31].dispatcher externalJobs 5282145
scalar FogSequentialForward.fog[31].dispatcher remoteJobs 5282265
scalar FogSequentialForward.fog[31].dispatcher probeQueries 0
scalar FogSequentialForward.fog[31].dispatcher probeAnswers 0
scalar FogSequentialForward.fog[31].dispatcher droppedJobsSLA 942
scalar FogSequentialForward.fog[31].dispatcher jobs_class_1 5298552
scalar FogSequentialForward.fog[31].dispatcher remoteJobs_class_1 5282265
scalar FogSequentialForward.fog[31].dispatcher localJobs_class_1 15345
scalar FogSequentialForward.fog[31].dispatcher droppedJobsSLA_class_1 942
scalar FogSequentialForward.fog[31].server[0] rho 1
scalar FogSequentialForward.fog[31].server[0] congestionRatio 0
scalar FogSequentialForward.fog[31].server[0] totalJobs 15345
scalar FogSequentialForward.fog[31].server[0] droppedJobsQueue 1035
scalar FogSequentialForward.fog[31].server[0] droppedJobsTimout 0
scalar FogSequentialForward.fog[31].server[0] droppedJobsSLA 9715
scalar FogSequentialForward.fog[31].server[0] droppedJobsTotal 10750
scalar FogSequentialForward.fog[32].dispatcher localJobs 15294
scalar FogSequentialForward.fog[32].dispatcher internalJobs 16125
scalar FogSequentialForward.fog[32].dispatcher externalJobs 5279608
scalar FogSequentialForward.fog[32].dispatcher remoteJobs 5279535
scalar FogSequentialForward.fog[32].dispatcher probeQueries 0
scalar FogSequentialForward.fog[32].dispatcher probeAnswers 0
scalar FogSequentialForward.fog[32].dispatcher droppedJobsSLA 904
scalar FogSequentialForward.fog[32].dispatcher jobs_class_1 5295733
scalar FogSequentialForward.fog[32].dispatcher remoteJobs_class_1 5279535
scalar FogSequentialForward.fog[32].dispatcher localJobs_class_1 15294
scalar FogSequentialForward.fog[32].dispatcher droppedJobsSLA_class_1 904
scalar FogSequentialForward.fog[32].server[0] rho 1
scalar FogSequentialForward.fog[32].server[0] congestionRatio 0
scalar FogSequentialForward.fog[32].server[0] totalJobs 15294
scalar FogSequentialForward.fog[32].server[0] droppedJobsQueue 1032
scalar FogSequentialForward.fog[32].server[0] droppedJobsTimout 0
scalar FogSequentialForward.fog[32].server[0] droppedJobsSLA 9646
scalar FogSequentialForward.fog[32].server[0] droppedJobsTotal 10678
scalar FogSequentialForward.fog[33].dispatcher localJobs 15321
scalar FogSequentialForward.fog[33].dispatcher internalJobs 16086
scalar FogSequentialForward.fog[33].dispatcher externalJobs 5284424
scalar FogSequentialForward.fog[33].dispatcher remoteJobs 5284261
scalar FogSequentialForward.fog[33].dispatcher probeQueries 0
scalar FogSequentialForward.fog[33].dispatcher probeAnswers 0
scalar FogSequentialForward.fog[33].dispatcher droppedJobsSLA 928
scalar FogSequentialForward.fog[33].dispatcher jobs_class_1 5300510
scalar FogSequentialForward.fog[33].dispatcher remoteJobs_class_1 5284261
scalar FogSequentialForward.fog[33].dispatcher localJobs_class_1 15321
scalar FogSequentialForward.fog[33].dispatcher droppedJobsSLA_class_1 928
scalar FogSequentialForward.fog[33].server[0] rho 0.99999994039536
scalar FogSequentialForward.fog[33].server[0] congestionRatio 0
scalar FogSequentialForward.fog[33].server[0] totalJobs 15321
scalar FogSequentialForward.fog[33].server[0] droppedJobsQueue 1032
scalar FogSequentialForward.fog[33].server[0] droppedJobsTimout 0
scalar FogSequentialForward.fog[33].server[0] droppedJobsSLA 9687
scalar FogSequentialForward.fog[33].server[0] droppedJobsTotal 10719
scalar FogSequentialForward.fog[34].dispatcher localJobs 15265
scalar FogSequentialForward.fog[34].dispatcher internalJobs 16324
scalar FogSequentialForward.fog[34].dispatcher externalJobs 5286064
scalar FogSequentialForward.fog[34].dispatcher remoteJobs 5286222
scalar FogSequentialForward.fog[34].dispatcher probeQueries 0
scalar FogSequentialForward.fog[34].dispatcher probeAnswers 0
scalar FogSequentialForward.fog[34].dispatcher droppedJobsSLA 901
scalar FogSequentialForward.fog[34].dispatcher jobs_class_1 5302388
scalar FogSequentialForward.fog[34].dispatcher remoteJobs_class_1 5286222
scalar FogSequentialForward.fog[34].dispatcher localJobs_class_1 15265
scalar FogSequentialForward.fog[34].dispatcher droppedJobsSLA_class_1 901
scalar FogSequentialForward.fog[34].server[0] rho 1
scalar FogSequentialForward.fog[34].server[0] congestionRatio 0
scalar FogSequentialForward.fog[34].server[0] totalJobs 15265
scalar FogSequentialForward.fog[34].server[0] droppedJobsQueue 1033
scalar FogSequentialForward.fog[34].server[0] droppedJobsTimout 0
scalar FogSequentialForward.fog[34].server[0] droppedJobsSLA 9590
scalar FogSequentialForward.fog[34].server[0] droppedJobsTotal 10623
scalar FogSequentialForward.fog[35].dispatcher localJobs 15294
scalar FogSequentialForward.fog[35].dispatcher internalJobs 16098
scalar FogSequentialForward.fog[35].dispatcher externalJobs 5286219
scalar FogSequentialForward.fog[35].dispatcher remoteJobs 5286124
scalar FogSequentialForward.fog[35].dispatcher probeQueries 0
scalar FogSequentialForward.fog[35].dispatcher probeAnswers 0
scalar FogSequentialForward.fog[35].dispatcher droppedJobsSLA 899
scalar FogSequentialForward.fog[35].dispatcher jobs_class_1 5302317
scalar FogSequentialForward.fog[35].dispatcher remoteJobs_class_1 5286124
scalar FogSequentialForward.fog[35].dispatcher localJobs_class_1 15294
scalar FogSequentialForward.fog[35].dispatcher droppedJobsSLA_class_1 899
scalar FogSequentialForward.fog[35].server[0] rho 0.99999994039536
scalar FogSequentialForward.fog[35].server[0] congestionRatio 0
scalar FogSequentialForward.fog[35].server[0] totalJobs 15294
scalar FogSequentialForward.fog[35].server[0] droppedJobsQueue 1034
scalar FogSequentialForward.fog[35].server[0] droppedJobsTimout 0
scalar FogSequentialForward.fog[35].server[0] droppedJobsSLA 9644
scalar FogSequentialForward.fog[35].server[0] droppedJobsTotal 10678
scalar FogSequentialForward.fog[36].dispatcher localJobs 15361
scalar FogSequentialForward.fog[36].dispatcher internalJobs 16175
scalar FogSequentialForward.fog[36].dispatcher externalJobs 5279622
scalar FogSequentialForward.fog[36].dispatcher remoteJobs 5279535
scalar FogSequentialForward.fog[36].dispatcher probeQueries 0
scalar FogSequentialForward.fog[36].dispatcher probeAnswers 0
scalar FogSequentialForward.fog[36].dispatcher droppedJobsSLA 901
scalar FogSequentialForward.fog[36].dispatcher jobs_class_1 5295797
scalar FogSequentialForward.fog[36].dispatcher remoteJobs_class_1 5279535
scalar FogSequentialForward.fog[36].dispatcher localJobs_class_1 15361
scalar FogSequentialForward.fog[36].dispatcher droppedJobsSLA_class_1 901
scalar FogSequentialForward.fog[36].server[0] rho 0.99999976158142
scalar FogSequentialForward.fog[36].server[0] congestionRatio 0
scalar FogSequentialForward.fog[36].server[0] totalJobs 15361
scalar FogSequentialForward.fog[36].server[0] droppedJobsQueue 1039
scalar FogSequentialForward.fog[36].server[0] droppedJobsTimout 0
scalar FogSequentialForward.fog[36].server[0] droppedJobsSLA 9688
scalar FogSequentialForward.fog[36].server[0] droppedJobsTotal 10727
scalar FogSequentialForward.fog[37].dispatcher localJobs 15296
scalar FogSequentialForward.fog[37].dispatcher internalJobs 16193
scalar FogSequentialForward.fog[37].dispatcher externalJobs 5288120
scalar FogSequentialForward.fog[37].dispatcher remoteJobs 5288110
scalar FogSequentialForward.fog[37].dispatcher probeQueries 0
scalar FogSequentialForward.fog[37].dispatcher probeAnswers 0
scalar FogSequentialForward.fog[37].dispatcher droppedJobsSLA 907
scalar FogSequentialForward.fog[37].dispatcher jobs_class_1 5304313
scalar FogSequentialForward.fog[37].dispatcher remoteJobs_class_1 5288110
scalar FogSequentialForward.fog[37].dispatcher localJobs_class_1 15296
scalar FogSequentialForward.fog[37].dispatcher droppedJobsSLA_class_1 907
scalar FogSequentialForward.fog[37].server[0] rho 1
scalar FogSequentialForward.fog[37].server[0] congestionRatio 0
scalar FogSequentialForward.fog[37].server[0] totalJobs 15296
scalar FogSequentialForward.fog[37].server[0] droppedJobsQueue 1034
scalar FogSequentialForward.fog[37].server[0] droppedJobsTimout 0
scalar FogSequentialForward.fog[37].server[0] droppedJobsSLA 9619
scalar FogSequentialForward.fog[37].server[0] droppedJobsTotal 10653
scalar FogSequentialForward.fog[38].dispatcher localJobs 15257
scalar FogSequentialForward.fog[38].dispatcher internalJobs 16340
scalar FogSequentialForward.fog[38].dispatcher externalJobs 5285710
scalar FogSequentialForward.fog[38].dispatcher remoteJobs 5285888
scalar FogSequentialForward.fog[38].dispatcher probeQueries 0
scalar FogSequentialForward.fog[38].dispatcher probeAnswers 0
scalar FogSequentialForward.fog[38].dispatcher droppedJobsSLA 905
scalar FogSequentialForward.fog[38].dispatcher jobs_class_1 5302050
scalar FogSequentialForward.fog[38].dispatcher remoteJobs_class_1 5285888
scalar FogSequentialForward.fog[38].dispatcher localJobs_class_1 15257
scalar FogSequentialForward.fog[38].dispatcher droppedJobsSLA_class_1 905
scalar FogSequentialForward.fog[38].server[0] rho 1
scalar FogSequentialForward.fog[38].server[0] congestionRatio 0
scalar FogSequentialForward.fog[38].server[0] totalJobs 15257
scalar FogSequentialForward.fog[38].server[0] droppedJobsQueue 1028
scalar FogSequentialForward.fog[38].server[0] droppedJobsTimout 0
scalar FogSequentialForward.fog[38].server[0] droppedJobsSLA 9648
scalar FogSequentialForward.fog[38].server[0] droppedJobsTotal 10676
scalar FogSequentialForward.fog[39].dispatcher localJobs 15265
scalar FogSequentialForward.fog[39].dispatcher internalJobs 16132
scalar FogSequentialForward.fog[39].dispatcher externalJobs 5281051
scalar FogSequentialForward.fog[39].dispatcher remoteJobs 5281027
scalar FogSequentialForward.fog[39].dispatcher probeQueries 0
scalar FogSequentialForward.fog[39].dispatcher probeAnswers 0
scalar FogSequentialForward.fog[39].dispatcher droppedJobsSLA 891
scalar FogSequentialForward.fog[39].dispatcher jobs_class_1 5297183
scalar FogSequentialForward.fog[39].dispatcher remoteJobs_class_1 5281027
scalar FogSequentialForward.fog[39].dispatcher localJobs_class_1 15265
scalar FogSequentialForward.fog[39].dispatcher droppedJobsSLA_class_1 891
scalar FogSequentialForward.fog[39].server[0] rho 1
scalar FogSequentialForward.fog[39].server[0] congestionRatio 0
scalar FogSequentialForward.fog[39].server[0] totalJobs 15265
scalar FogSequentialForward.fog[39].server[0] droppedJobsQueue 1028
scalar FogSequentialForward.fog[39].server[0] droppedJobsTimout 0
scalar FogSequentialForward.fog[39].server[0] droppedJobsSLA 9612
scalar FogSequentialForward.fog[39].server[0] droppedJobsTotal 10640
scalar FogSequentialForward.fog[40].dispatcher localJobs 15355
scalar FogSequentialForward.fog[40].dispatcher internalJobs 16236
scalar FogSequentialForward.fog[40].dispatcher externalJobs 5280328
scalar FogSequentialForward.fog[40].dispatcher remoteJobs 5280300
scalar FogSequentialForward.fog[40].dispatcher probeQueries 0
scalar FogSequentialForward.fog[40].dispatcher probeAnswers 0
scalar FogSequentialForward.fog[40].dispatcher droppedJobsSLA 909
scalar FogSequentialForward.fog[40].dispatcher jobs_class_1 5296564
scalar FogSequentialForward.fog[40].dispatcher remoteJobs_class_1 5280300
scalar FogSequentialForward.fog[40].dispatcher localJobs_class_1 15355
scalar FogSequentialForward.fog[40].dispatcher droppedJobsSLA_class_1 909
scalar FogSequentialForward.fog[40].server[0] rho 1
scalar FogSequentialForward.fog[40].server[0] congestionRatio 0
scalar FogSequentialForward.fog[40].server[0] totalJobs 15355
scalar FogSequentialForward.fog[40].server[0] droppedJobsQueue 1038
scalar FogSequentialForward.fog[40].server[0] droppedJobsTimout 0
scalar FogSequentialForward.fog[40].server[0] droppedJobsSLA 9700
scalar FogSequentialForward.fog[40].server[0] droppedJobsTotal 10738
scalar FogSequentialForward.fog[41].dispatcher localJobs 15277
scalar FogSequentialForward.fog[41].dispatcher internalJobs 16389
scalar FogSequentialForward.fog[41].dispatcher externalJobs 5282553
scalar FogSequentialForward.fog[41].dispatcher remoteJobs 5282785
scalar FogSequentialForward.fog[41].dispatcher probeQueries 0
scalar FogSequentialForward.fog[41].dispatcher probeAnswers 0
scalar FogSequentialForward.fog[41].dispatcher droppedJobsSLA 880
scalar FogSequentialForward.fog[41].dispatcher jobs_class_1 5298942
scalar FogSequentialForward.fog[41].dispatcher remoteJobs_class_1 5282785
scalar FogSequentialForward.fog[41].dispatcher localJobs_class_1 15277
scalar FogSequentialForward.fog[41].dispatcher droppedJobsSLA_class_1 880
scalar FogSequentialForward.fog[41].server[0] rho 1
scalar FogSequentialForward.fog[41].server[0] congestionRatio 0
scalar FogSequentialForward.fog[41].server[0] totalJobs 15277
scalar FogSequentialForward.fog[41].server[0] droppedJobsQueue 1030
scalar FogSequentialForward.fog[41].server[0] droppedJobsTimout 0
scalar FogSequentialForward.fog[41].server[0] droppedJobsSLA 9672
scalar FogSequentialForward.fog[41].server[0] droppedJobsTotal 10702
scalar FogSequentialForward.fog[42].dispatcher localJobs 15286
scalar FogSequentialForward.fog[42].dispatcher internalJobs 16200
scalar FogSequentialForward.fog[42].dispatcher externalJobs 5290325
scalar FogSequentialForward.fog[42].dispatcher remoteJobs 5290336
scalar FogSequentialForward.fog[42].dispatcher probeQueries 0
scalar FogSequentialForward.fog[42].dispatcher probeAnswers 0
scalar FogSequentialForward.fog[42].dispatcher droppedJobsSLA 903
scalar FogSequentialForward.fog[42].dispatcher jobs_class_1 5306525
scalar FogSequentialForward.fog[42].dispatcher remoteJobs_class_1 5290336
scalar FogSequentialForward.fog[42].dispatcher localJobs_class_1 15286
scalar FogSequentialForward.fog[42].dispatcher droppedJobsSLA_class_1 903
scalar FogSequentialForward.fog[42].server[0] rho 1
scalar FogSequentialForward.fog[42].server[0] congestionRatio 0
scalar FogSequentialForward.fog[42].server[0] totalJobs 15286
scalar FogSequentialForward.fog[42].server[0] droppedJobsQueue 1031
scalar FogSequentialForward.fog[42].server[0] droppedJobsTimout 0
scalar FogSequentialForward.fog[42].server[0] droppedJobsSLA 9616
scalar FogSequentialForward.fog[42].server[0] droppedJobsTotal 10647
scalar FogSequentialForward.fog[43].dispatcher localJobs 15365
scalar FogSequentialForward.fog[43].dispatcher internalJobs 16108
scalar FogSequentialForward.fog[43].dispatcher externalJobs 5281966
scalar FogSequentialForward.fog[43].dispatcher remoteJobs 5281802
scalar FogSequentialForward.fog[43].dispatcher probeQueries 0
scalar FogSequentialForward.fog[43].dispatcher probeAnswers 0
scalar FogSequentialForward.fog[43].dispatcher droppedJobsSLA 907
scalar FogSequentialForward.fog[43].dispatcher jobs_class_1 5298074
scalar FogSequentialForward.fog[43].dispatcher remoteJobs_class_1 5281802
scalar FogSequentialForward.fog[43].dispatcher localJobs_class_1 15365
scalar FogSequentialForward.fog[43].dispatcher droppedJobsSLA_class_1 907
scalar FogSequentialForward.fog[43].server[0] rho 1
scalar FogSequentialForward.fog[43].server[0] congestionRatio 0
scalar FogSequentialForward.fog[43].server[0] totalJobs 15365
scalar FogSequentialForward.fog[43].server[0] droppedJobsQueue 1034
scalar FogSequentialForward.fog[43].server[0] droppedJobsTimout 0
scalar FogSequentialForward.fog[43].server[0] droppedJobsSLA 9686
scalar FogSequentialForward.fog[43].server[0] droppedJobsTotal 10720
scalar FogSequentialForward.fog[44].dispatcher localJobs 15357
scalar FogSequentialForward.fog[44].dispatcher internalJobs 16517
scalar FogSequentialForward.fog[44].dispatcher externalJobs 5286038
scalar FogSequentialForward.fog[44].dispatcher remoteJobs 5286274
scalar FogSequentialForward.fog[44].dispatcher probeQueries 0
scalar FogSequentialForward.fog[44].dispatcher probeAnswers 0
scalar FogSequentialForward.fog[44].dispatcher droppedJobsSLA 924
scalar FogSequentialForward.fog[44].dispatcher jobs_class_1 5302555
scalar FogSequentialForward.fog[44].dispatcher remoteJobs_class_1 5286274
scalar FogSequentialForward.fog[44].dispatcher localJobs_class_1 15357
scalar FogSequentialForward.fog[44].dispatcher droppedJobsSLA_class_1 924
scalar FogSequentialForward.fog[44].server[0] rho 0.99999988079071
scalar FogSequentialForward.fog[44].server[0] congestionRatio 0
scalar FogSequentialForward.fog[44].server[0] totalJobs 15357
scalar FogSequentialForward.fog[44].server[0] droppedJobsQueue 1037
scalar FogSequentialForward.fog[44].server[0] droppedJobsTimout 0
scalar FogSequentialForward.fog[44].server[0] droppedJobsSLA 9745
scalar FogSequentialForward.fog[44].server[0] droppedJobsTotal 10782
scalar FogSequentialForward.fog[45].dispatcher localJobs 15314
scalar FogSequentialForward.fog[45].dispatcher internalJobs 16182
scalar FogSequentialForward.fog[45].dispatcher externalJobs 5283364
scalar FogSequentialForward.fog[45].dispatcher remoteJobs 5283322
scalar FogSequentialForward.fog[45].dispatcher probeQueries 0
scalar FogSequentialForward.fog[45].dispatcher probeAnswers 0
scalar FogSequentialForward.fog[45].dispatcher droppedJobsSLA 910
scalar FogSequentialForward.fog[45].dispatcher jobs_class_1 5299546
scalar FogSequentialForward.fog[45].dispatcher remoteJobs_class_1 5283322
scalar FogSequentialForward.fog[45].dispatcher localJobs_class_1 15314
scalar FogSequentialForward.fog[45].dispatcher droppedJobsSLA_class_1 910
scalar FogSequentialForward.fog[45].server[0] rho 1
scalar FogSequentialForward.fog[45].server[0] congestionRatio 0
scalar FogSequentialForward.fog[45].server[0] totalJobs 15314
scalar FogSequentialForward.fog[45].server[0] droppedJobsQueue 1036
scalar FogSequentialForward.fog[45].server[0] droppedJobsTimout 0
scalar FogSequentialForward.fog[45].server[0] droppedJobsSLA 9639
scalar FogSequentialForward.fog[45].server[0] droppedJobsTotal 10675
scalar FogSequentialForward.fog[46].dispatcher localJobs 15261
scalar FogSequentialForward.fog[46].dispatcher internalJobs 15961
scalar FogSequentialForward.fog[46].dispatcher externalJobs 5280887
scalar FogSequentialForward.fog[46].dispatcher remoteJobs 5280702
scalar FogSequentialForward.fog[46].dispatcher probeQueries 0
scalar FogSequentialForward.fog[46].dispatcher probeAnswers 0
scalar FogSequentialForward.fog[46].dispatcher droppedJobsSLA 885
scalar FogSequentialForward.fog[46].dispatcher jobs_class_1 5296848
scalar FogSequentialForward.fog[46].dispatcher remoteJobs_class_1 5280702
scalar FogSequentialForward.fog[46].dispatcher localJobs_class_1 15261
scalar FogSequentialForward.fog[46].dispatcher droppedJobsSLA_class_1 885
scalar FogSequentialForward.fog[46].server[0] rho 1
scalar FogSequentialForward.fog[46].server[0] congestionRatio 0
scalar FogSequentialForward.fog[46].server[0] totalJobs 15261
scalar FogSequentialForward.fog[46].server[0] droppedJobsQueue 1032
scalar FogSequentialForward.fog[46].server[0] droppedJobsTimout 0
scalar FogSequentialForward.fog[46].server[0] droppedJobsSLA 9602
scalar FogSequentialForward.fog[46].server[0] droppedJobsTotal 10634
scalar FogSequentialForward.fog[47].dispatcher localJobs 15309
scalar FogSequentialForward.fog[47].dispatcher internalJobs 16405
scalar FogSequentialForward.fog[47].dispatcher externalJobs 5281671
scalar FogSequentialForward.fog[47].dispatcher remoteJobs 5281909
scalar FogSequentialForward.fog[47].dispatcher probeQueries 0
scalar FogSequentialForward.fog[47].dispatcher probeAnswers 0
scalar FogSequentialForward.fog[47].dispatcher droppedJobsSLA 858
scalar FogSequentialForward.fog[47].dispatcher jobs_class_1 5298076
scalar FogSequentialForward.fog[47].dispatcher remoteJobs_class_1 5281909
scalar FogSequentialForward.fog[47].dispatcher localJobs_class_1 15309
scalar FogSequentialForward.fog[47].dispatcher droppedJobsSLA_class_1 858
scalar FogSequentialForward.fog[47].server[0] rho 1
scalar FogSequentialForward.fog[47].server[0] congestionRatio 0
scalar FogSequentialForward.fog[47].server[0] totalJobs 15309
scalar FogSequentialForward.fog[47].server[0] droppedJobsQueue 1033
scalar FogSequentialForward.fog[47].server[0] droppedJobsTimout 0
scalar FogSequentialForward.fog[47].server[0] droppedJobsSLA 9609
scalar FogSequentialForward.fog[47].server[0] droppedJobsTotal 10642
scalar FogSequentialForward.fog[48].dispatcher localJobs 15228
scalar FogSequentialForward.fog[48].dispatcher internalJobs 16391
scalar FogSequentialForward.fog[48].dispatcher externalJobs 5286625
scalar FogSequentialForward.fog[48].dispatcher remoteJobs 5286926
scalar FogSequentialForward.fog[48].dispatcher probeQueries 0
scalar FogSequentialForward.fog[48].dispatcher probeAnswers 0
scalar FogSequentialForward.fog[48].dispatcher droppedJobsSLA 862
scalar FogSequentialForward.fog[48].dispatcher jobs_class_1 5303016
scalar FogSequentialForward.fog[48].dispatcher remoteJobs_class_1 5286926
scalar FogSequentialForward.fog[48].dispatcher localJobs_class_1 15228
scalar FogSequentialForward.fog[48].dispatcher droppedJobsSLA_class_1 862
scalar FogSequentialForward.fog[48].server[0] rho 1
scalar FogSequentialForward.fog[48].server[0] congestionRatio 0
scalar FogSequentialForward.fog[48].server[0] totalJobs 15228
scalar FogSequentialForward.fog[48].server[0] droppedJobsQueue 1030
scalar FogSequentialForward.fog[48].server[0] droppedJobsTimout 0
scalar FogSequentialForward.fog[48].server[0] droppedJobsSLA 9585
scalar FogSequentialForward.fog[48].server[0] droppedJobsTotal 10615
scalar FogSequentialForward.fog[49].dispatcher localJobs 15287
scalar FogSequentialForward.fog[49].dispatcher internalJobs 16297
scalar FogSequentialForward.fog[49].dispatcher externalJobs 5284102
scalar FogSequentialForward.fog[49].dispatcher remoteJobs 5284150
scalar FogSequentialForward.fog[49].dispatcher probeQueries 0
scalar FogSequentialForward.fog[49].dispatcher probeAnswers 0
scalar FogSequentialForward.fog[49].dispatcher droppedJobsSLA 962
scalar FogSequentialForward.fog[49].dispatcher jobs_class_1 5300399
scalar FogSequentialForward.fog[49].dispatcher remoteJobs_class_1 5284150
scalar FogSequentialForward.fog[49].dispatcher localJobs_class_1 15287
scalar FogSequentialForward.fog[49].dispatcher droppedJobsSLA_class_1 962
scalar FogSequentialForward.fog[49].server[0] rho 1
scalar FogSequentialForward.fog[49].server[0] congestionRatio 0
scalar FogSequentialForward.fog[49].server[0] totalJobs 15287
scalar FogSequentialForward.fog[49].server[0] droppedJobsQueue 1029
scalar FogSequentialForward.fog[49].server[0] droppedJobsTimout 0
scalar FogSequentialForward.fog[49].server[0] droppedJobsSLA 9623
scalar FogSequentialForward.fog[49].server[0] droppedJobsTotal 10652
scalar FogSequentialForward.fog[50].dispatcher localJobs 15221
scalar FogSequentialForward.fog[50].dispatcher internalJobs 16215
scalar FogSequentialForward.fog[50].dispatcher externalJobs 5284519
scalar FogSequentialForward.fog[50].dispatcher remoteJobs 5284583
scalar FogSequentialForward.fog[50].dispatcher probeQueries 0
scalar FogSequentialForward.fog[50].dispatcher probeAnswers 0
scalar FogSequentialForward.fog[50].dispatcher droppedJobsSLA 930
scalar FogSequentialForward.fog[50].dispatcher jobs_class_1 5300734
scalar FogSequentialForward.fog[50].dispatcher remoteJobs_class_1 5284583
scalar FogSequentialForward.fog[50].dispatcher localJobs_class_1 15221
scalar FogSequentialForward.fog[50].dispatcher droppedJobsSLA_class_1 930
scalar FogSequentialForward.fog[50].server[0] rho 1
scalar FogSequentialForward.fog[50].server[0] congestionRatio 0
scalar FogSequentialForward.fog[50].server[0] totalJobs 15221
scalar FogSequentialForward.fog[50].server[0] droppedJobsQueue 1027
scalar FogSequentialForward.fog[50].server[0] droppedJobsTimout 0
scalar FogSequentialForward.fog[50].server[0] droppedJobsSLA 9582
scalar FogSequentialForward.fog[50].server[0] droppedJobsTotal 10609
scalar FogSequentialForward.fog[51].dispatcher localJobs 15410
scalar FogSequentialForward.fog[51].dispatcher internalJobs 15923
scalar FogSequentialForward.fog[51].dispatcher externalJobs 5282430
scalar FogSequentialForward.fog[51].dispatcher remoteJobs 5282026
scalar FogSequentialForward.fog[51].dispatcher probeQueries 0
scalar FogSequentialForward.fog[51].dispatcher probeAnswers 0
scalar FogSequentialForward.fog[51].dispatcher droppedJobsSLA 917
scalar FogSequentialForward.fog[51].dispatcher jobs_class_1 5298353
scalar FogSequentialForward.fog[51].dispatcher remoteJobs_class_1 5282026
scalar FogSequentialForward.fog[51].dispatcher localJobs_class_1 15410
scalar FogSequentialForward.fog[51].dispatcher droppedJobsSLA_class_1 917
scalar FogSequentialForward.fog[51].server[0] rho 1
scalar FogSequentialForward.fog[51].server[0] congestionRatio 0
scalar FogSequentialForward.fog[51].server[0] totalJobs 15410
scalar FogSequentialForward.fog[51].server[0] droppedJobsQueue 1039
scalar FogSequentialForward.fog[51].server[0] droppedJobsTimout 0
scalar FogSequentialForward.fog[51].server[0] droppedJobsSLA 9684
scalar FogSequentialForward.fog[51].server[0] droppedJobsTotal 10723
scalar FogSequentialForward.fog[52].dispatcher localJobs 15344
scalar FogSequentialForward.fog[52].dispatcher internalJobs 16125
scalar FogSequentialForward.fog[52].dispatcher externalJobs 5288960
scalar FogSequentialForward.fog[52].dispatcher remoteJobs 5288847
scalar FogSequentialForward.fog[52].dispatcher probeQueries 0
scalar FogSequentialForward.fog[52].dispatcher probeAnswers 0
scalar FogSequentialForward.fog[52].dispatcher droppedJobsSLA 894
scalar FogSequentialForward.fog[52].dispatcher jobs_class_1 5305085
scalar FogSequentialForward.fog[52].dispatcher remoteJobs_class_1 5288847
scalar FogSequentialForward.fog[52].dispatcher localJobs_class_1 15344
scalar FogSequentialForward.fog[52].dispatcher droppedJobsSLA_class_1 894
scalar FogSequentialForward.fog[52].server[0] rho 1
scalar FogSequentialForward.fog[52].server[0] congestionRatio 0
scalar FogSequentialForward.fog[52].server[0] totalJobs 15344
scalar FogSequentialForward.fog[52].server[0] droppedJobsQueue 1031
scalar FogSequentialForward.fog[52].server[0] droppedJobsTimout 0
scalar FogSequentialForward.fog[52].server[0] droppedJobsSLA 9755
scalar FogSequentialForward.fog[52].server[0] droppedJobsTotal 10786
scalar FogSequentialForward.fog[53].dispatcher localJobs 15353
scalar FogSequentialForward.fog[53].dispatcher internalJobs 16372
scalar FogSequentialForward.fog[53].dispatcher externalJobs 5282758
scalar FogSequentialForward.fog[53].dispatcher remoteJobs 5282919
scalar FogSequentialForward.fog[53].dispatcher probeQueries 0
scalar FogSequentialForward.fog[53].dispatcher probeAnswers 0
scalar FogSequentialForward.fog[53].dispatcher droppedJobsSLA 858
scalar FogSequentialForward.fog[53].dispatcher jobs_class_1 5299130
scalar FogSequentialForward.fog[53].dispatcher remoteJobs_class_1 5282919
scalar FogSequentialForward.fog[53].dispatcher localJobs_class_1 15353
scalar FogSequentialForward.fog[53].dispatcher droppedJobsSLA_class_1 858
scalar FogSequentialForward.fog[53].server[0] rho 0.99999982118607
scalar FogSequentialForward.fog[53].server[0] congestionRatio 0
scalar FogSequentialForward.fog[53].server[0] totalJobs 15353
scalar FogSequentialForward.fog[53].server[0] droppedJobsQueue 1035
scalar FogSequentialForward.fog[53].server[0] droppedJobsTimout 0
scalar FogSequentialForward.fog[53].server[0] droppedJobsSLA 9724
scalar FogSequentialForward.fog[53].server[0] droppedJobsTotal 10759
scalar FogSequentialForward.fog[54].dispatcher localJobs 15238
scalar FogSequentialForward.fog[54].dispatcher internalJobs 16083
scalar FogSequentialForward.fog[54].dispatcher externalJobs 5282397
scalar FogSequentialForward.fog[54].dispatcher remoteJobs 5282378
scalar FogSequentialForward.fog[54].dispatcher probeQueries 0
scalar FogSequentialForward.fog[54].dispatcher probeAnswers 0
scalar FogSequentialForward.fog[54].dispatcher droppedJobsSLA 864
scalar FogSequentialForward.fog[54].dispatcher jobs_class_1 5298480
scalar FogSequentialForward.fog[54].dispatcher remoteJobs_class_1 5282378
scalar FogSequentialForward.fog[54].dispatcher localJobs_class_1 15238
scalar FogSequentialForward.fog[54].dispatcher droppedJobsSLA_class_1 864
scalar FogSequentialForward.fog[54].server[0] rho 1
scalar FogSequentialForward.fog[54].server[0] congestionRatio 0
scalar FogSequentialForward.fog[54].server[0] totalJobs 15238
scalar FogSequentialForward.fog[54].server[0] droppedJobsQueue 1031
scalar FogSequentialForward.fog[54].server[0] droppedJobsTimout 0
scalar FogSequentialForward.fog[54].server[0] droppedJobsSLA 9628
scalar FogSequentialForward.fog[54].server[0] droppedJobsTotal 10659
scalar FogSequentialForward.fog[55].dispatcher localJobs 15291
scalar FogSequentialForward.fog[55].dispatcher internalJobs 16197
scalar FogSequentialForward.fog[55].dispatcher externalJobs 5286041
scalar FogSequentialForward.fog[55].dispatcher remoteJobs 5286053
scalar FogSequentialForward.fog[55].dispatcher probeQueries 0
scalar FogSequentialForward.fog[55].dispatcher probeAnswers 0
scalar FogSequentialForward.fog[55].dispatcher droppedJobsSLA 894
scalar FogSequentialForward.fog[55].dispatcher jobs_class_1 5302238
scalar FogSequentialForward.fog[55].dispatcher remoteJobs_class_1 5286053
scalar FogSequentialForward.fog[55].dispatcher localJobs_class_1 15291
scalar FogSequentialForward.fog[55].dispatcher droppedJobsSLA_class_1 894
scalar FogSequentialForward.fog[55].server[0] rho 1
scalar FogSequentialForward.fog[55].server[0] congestionRatio 0
scalar FogSequentialForward.fog[55].server[0] totalJobs 15291
scalar FogSequentialForward.fog[55].server[0] droppedJobsQueue 1039
scalar FogSequentialForward.fog[55].server[0] droppedJobsTimout 0
scalar FogSequentialForward.fog[55].server[0] droppedJobsSLA 9647
scalar FogSequentialForward.fog[55].server[0] droppedJobsTotal 10686
scalar FogSequentialForward.fog[56].dispatcher localJobs 15364
scalar FogSequentialForward.fog[56].dispatcher internalJobs 16201
scalar FogSequentialForward.fog[56].dispatcher externalJobs 5285336
scalar FogSequentialForward.fog[56].dispatcher remoteJobs 5285325
scalar FogSequentialForward.fog[56].dispatcher probeQueries 0
scalar FogSequentialForward.fog[56].dispatcher probeAnswers 0
scalar FogSequentialForward.fog[56].dispatcher droppedJobsSLA 848
scalar FogSequentialForward.fog[56].dispatcher jobs_class_1 5301537
scalar FogSequentialForward.fog[56].dispatcher remoteJobs_class_1 5285325
scalar FogSequentialForward.fog[56].dispatcher localJobs_class_1 15364
scalar FogSequentialForward.fog[56].dispatcher droppedJobsSLA_class_1 848
scalar FogSequentialForward.fog[56].server[0] rho 1
scalar FogSequentialForward.fog[56].server[0] congestionRatio 0
scalar FogSequentialForward.fog[56].server[0] totalJobs 15364
scalar FogSequentialForward.fog[56].server[0] droppedJobsQueue 1037
scalar FogSequentialForward.fog[56].server[0] droppedJobsTimout 0
scalar FogSequentialForward.fog[56].server[0] droppedJobsSLA 9648
scalar FogSequentialForward.fog[56].server[0] droppedJobsTotal 10685
scalar FogSequentialForward.fog[57].dispatcher localJobs 15317
scalar FogSequentialForward.fog[57].dispatcher internalJobs 15978
scalar FogSequentialForward.fog[57].dispatcher externalJobs 5284587
scalar FogSequentialForward.fog[57].dispatcher remoteJobs 5284344
scalar FogSequentialForward.fog[57].dispatcher probeQueries 0
scalar FogSequentialForward.fog[57].dispatcher probeAnswers 0
scalar FogSequentialForward.fog[57].dispatcher droppedJobsSLA 904
scalar FogSequentialForward.fog[57].dispatcher jobs_class_1 5300565
scalar FogSequentialForward.fog[57].dispatcher remoteJobs_class_1 5284344
scalar FogSequentialForward.fog[57].dispatcher localJobs_class_1 15317
scalar FogSequentialForward.fog[57].dispatcher droppedJobsSLA_class_1 904
scalar FogSequentialForward.fog[57].server[0] rho 1
scalar FogSequentialForward.fog[57].server[0] congestionRatio 0
scalar FogSequentialForward.fog[57].server[0] totalJobs 15317
scalar FogSequentialForward.fog[57].server[0] droppedJobsQueue 1036
scalar FogSequentialForward.fog[57].server[0] droppedJobsTimout 0
scalar FogSequentialForward.fog[57].server[0] droppedJobsSLA 9685
scalar FogSequentialForward.fog[57].server[0] droppedJobsTotal 10721
scalar FogSequentialForward.fog[58].dispatcher localJobs 15296
scalar FogSequentialForward.fog[58].dispatcher internalJobs 16201
scalar FogSequentialForward.fog[58].dispatcher externalJobs 5283945
scalar FogSequentialForward.fog[58].dispatcher remoteJobs 5283966
scalar FogSequentialForward.fog[58].dispatcher probeQueries 0
scalar FogSequentialForward.fog[58].dispatcher probeAnswers 0
scalar FogSequentialForward.fog[58].dispatcher droppedJobsSLA 884
scalar FogSequentialForward.fog[58].dispatcher jobs_class_1 5300146
scalar FogSequentialForward.fog[58].dispatcher remoteJobs_class_1 5283966
scalar FogSequentialForward.fog[58].dispatcher localJobs_class_1 15296
scalar FogSequentialForward.fog[58].dispatcher droppedJobsSLA_class_1 884
scalar FogSequentialForward.fog[58].server[0] rho 0.99999129772186
scalar FogSequentialForward.fog[58].server[0] congestionRatio 0
scalar FogSequentialForward.fog[58].server[0] totalJobs 15296
scalar FogSequentialForward.fog[58].server[0] droppedJobsQueue 1030
scalar FogSequentialForward.fog[58].server[0] droppedJobsTimout 0
scalar FogSequentialForward.fog[58].server[0] droppedJobsSLA 9673
scalar FogSequentialForward.fog[58].server[0] droppedJobsTotal 10703
scalar FogSequentialForward.fog[59].dispatcher localJobs 15308
scalar FogSequentialForward.fog[59].dispatcher internalJobs 16209
scalar FogSequentialForward.fog[59].dispatcher externalJobs 5286814
scalar FogSequentialForward.fog[59].dispatcher remoteJobs 5286821
scalar FogSequentialForward.fog[59].dispatcher probeQueries 0
scalar FogSequentialForward.fog[59].dispatcher probeAnswers 0
scalar FogSequentialForward.fog[59].dispatcher droppedJobsSLA 894
scalar FogSequentialForward.fog[59].dispatcher jobs_class_1 5303023
scalar FogSequentialForward.fog[59].dispatcher remoteJobs_class_1 5286821
scalar FogSequentialForward.fog[59].dispatcher localJobs_class_1 15308
scalar FogSequentialForward.fog[59].dispatcher droppedJobsSLA_class_1 894
scalar FogSequentialForward.fog[59].server[0] rho 1
scalar FogSequentialForward.fog[59].server[0] congestionRatio 0
scalar FogSequentialForward.fog[59].server[0] totalJobs 15308
scalar FogSequentialForward.fog[59].server[0] droppedJobsQueue 1033
scalar FogSequentialForward.fog[59].server[0] droppedJobsTimout 0
scalar FogSequentialForward.fog[59].server[0] droppedJobsSLA 9639
scalar FogSequentialForward.fog[59].server[0] droppedJobsTotal 10672
scalar FogSequentialForward.fog[60].dispatcher localJobs 15334
scalar FogSequentialForward.fog[60].dispatcher internalJobs 16033
scalar FogSequentialForward.fog[60].dispatcher externalJobs 5281864
scalar FogSequentialForward.fog[60].dispatcher remoteJobs 5281709
scalar FogSequentialForward.fog[60].dispatcher probeQueries 0
scalar FogSequentialForward.fog[60].dispatcher probeAnswers 0
scalar FogSequentialForward.fog[60].dispatcher droppedJobsSLA 854
scalar FogSequentialForward.fog[60].dispatcher jobs_class_1 5297897
scalar FogSequentialForward.fog[60].dispatcher remoteJobs_class_1 5281709
scalar FogSequentialForward.fog[60].dispatcher localJobs_class_1 15334
scalar FogSequentialForward.fog[60].dispatcher droppedJobsSLA_class_1 854
scalar FogSequentialForward.fog[60].server[0] rho 1
scalar FogSequentialForward.fog[60].server[0] congestionRatio 0
scalar FogSequentialForward.fog[60].server[0] totalJobs 15334
scalar FogSequentialForward.fog[60].server[0] droppedJobsQueue 1035
scalar FogSequentialForward.fog[60].server[0] droppedJobsTimout 0
scalar FogSequentialForward.fog[60].server[0] droppedJobsSLA 9666
scalar FogSequentialForward.fog[60].server[0] droppedJobsTotal 10701
scalar FogSequentialForward.fog[61].dispatcher localJobs 15320
scalar FogSequentialForward.fog[61].dispatcher internalJobs 16109
scalar FogSequentialForward.fog[61].dispatcher externalJobs 5284576
scalar FogSequentialForward.fog[61].dispatcher remoteJobs 5284507
scalar FogSequentialForward.fog[61].dispatcher probeQueries 0
scalar FogSequentialForward.fog[61].dispatcher probeAnswers 0
scalar FogSequentialForward.fog[61].dispatcher droppedJobsSLA 858
scalar FogSequentialForward.fog[61].dispatcher jobs_class_1 5300685
scalar FogSequentialForward.fog[61].dispatcher remoteJobs_class_1 5284507
scalar FogSequentialForward.fog[61].dispatcher localJobs_class_1 15320
scalar FogSequentialForward.fog[61].dispatcher droppedJobsSLA_class_1 858
scalar FogSequentialForward.fog[61].server[0] rho 1
scalar FogSequentialForward.fog[61].server[0] congestionRatio 0
scalar FogSequentialForward.fog[61].server[0] totalJobs 15320
scalar FogSequentialForward.fog[61].server[0] droppedJobsQueue 1036
scalar FogSequentialForward.fog[61].server[0] droppedJobsTimout 0
scalar FogSequentialForward.fog[61].server[0] droppedJobsSLA 9676
scalar FogSequentialForward.fog[61].server[0] droppedJobsTotal 10712
scalar FogSequentialForward.fog[62].dispatcher localJobs 15289
scalar FogSequentialForward.fog[62].dispatcher internalJobs 16285
scalar FogSequentialForward.fog[62].dispatcher externalJobs 5281844
scalar FogSequentialForward.fog[62].dispatcher remoteJobs 5281936
scalar FogSequentialForward.fog[62].dispatcher probeQueries 0
scalar FogSequentialForward.fog[62].dispatcher probeAnswers 0
scalar FogSequentialForward.fog[62].dispatcher droppedJobsSLA 904
scalar FogSequentialForward.fog[62].dispatcher jobs_class_1 5298129
scalar FogSequentialForward.fog[62].dispatcher remoteJobs_class_1 5281936
scalar FogSequentialForward.fog[62].dispatcher localJobs_class_1 15289
scalar FogSequentialForward.fog[62].dispatcher droppedJobsSLA_class_1 904
scalar FogSequentialForward.fog[62].server[0] rho 1
scalar FogSequentialForward.fog[62].server[0] congestionRatio 0
scalar FogSequentialForward.fog[62].server[0] totalJobs 15289
scalar FogSequentialForward.fog[62].server[0] droppedJobsQueue 1035
scalar FogSequentialForward.fog[62].server[0] droppedJobsTimout 0
scalar FogSequentialForward.fog[62].server[0] droppedJobsSLA 9627
scalar FogSequentialForward.fog[62].server[0] droppedJobsTotal 10662
scalar FogSequentialForward.fog[63].dispatcher localJobs 15337
scalar FogSequentialForward.fog[63].dispatcher internalJobs 16071
scalar FogSequentialForward.fog[63].dispatcher externalJobs 5285103
scalar FogSequentialForward.fog[63].dispatcher remoteJobs 5284975
scalar FogSequentialForward.fog[63].dispatcher probeQueries 0
scalar FogSequentialForward.fog[63].dispatcher probeAnswers 0
scalar FogSequentialForward.fog[63].dispatcher droppedJobsSLA 862
scalar FogSequentialForward.fog[63].dispatcher jobs_class_1 5301174
scalar FogSequentialForward.fog[63].dispatcher remoteJobs_class_1 5284975
scalar FogSequentialForward.fog[63].dispatcher localJobs_class_1 15337
scalar FogSequentialForward.fog[63].dispatcher droppedJobsSLA_class_1 862
scalar FogSequentialForward.fog[63].server[0] rho 1
scalar FogSequentialForward.fog[63].server[0] congestionRatio 0
scalar FogSequentialForward.fog[63].server[0] totalJobs 15337
scalar FogSequentialForward.fog[63].server[0] droppedJobsQueue 1034
scalar FogSequentialForward.fog[63].server[0] droppedJobsTimout 0
scalar FogSequentialForward.fog[63].server[0] droppedJobsSLA 9673
scalar FogSequentialForward.fog[63].server[0] droppedJobsTotal 10707
scalar FogSequentialForward.fog[64].dispatcher localJobs 15290
scalar FogSequentialForward.fog[64].dispatcher internalJobs 16136
scalar FogSequentialForward.fog[64].dispatcher externalJobs 5283482
scalar FogSequentialForward.fog[64].dispatcher remoteJobs 5283444
scalar FogSequentialForward.fog[64].dispatcher probeQueries 0
scalar FogSequentialForward.fog[64].dispatcher probeAnswers 0
scalar FogSequentialForward.fog[64].dispatcher droppedJobsSLA 884
scalar FogSequentialForward.fog[64].dispatcher jobs_class_1 5299618
scalar FogSequentialForward.fog[64].dispatcher remoteJobs_class_1 5283444
scalar FogSequentialForward.fog[64].dispatcher localJobs_class_1 15290
scalar FogSequentialForward.fog[64].dispatcher droppedJobsSLA_class_1 884
scalar FogSequentialForward.fog[64].server[0] rho 0.99999952316284
scalar FogSequentialForward.fog[64].server[0] congestionRatio 0
scalar FogSequentialForward.fog[64].server[0] totalJobs 15290
scalar FogSequentialForward.fog[64].server[0] droppedJobsQueue 1031
scalar FogSequentialForward.fog[64].server[0] droppedJobsTimout 0
scalar FogSequentialForward.fog[64].server[0] droppedJobsSLA 9610
scalar FogSequentialForward.fog[64].server[0] droppedJobsTotal 10641
scalar FogSequentialForward.fog[65].dispatcher localJobs 15321
scalar FogSequentialForward.fog[65].dispatcher internalJobs 16192
scalar FogSequentialForward.fog[65].dispatcher externalJobs 5284552
scalar FogSequentialForward.fog[65].dispatcher remoteJobs 5284520
scalar FogSequentialForward.fog[65].dispatcher probeQueries 0
scalar FogSequentialForward.fog[65].dispatcher probeAnswers 0
scalar FogSequentialForward.fog[65].dispatcher droppedJobsSLA 903
scalar FogSequentialForward.fog[65].dispatcher jobs_class_1 5300744
scalar FogSequentialForward.fog[65].dispatcher remoteJobs_class_1 5284520
scalar FogSequentialForward.fog[65].dispatcher localJobs_class_1 15321
scalar FogSequentialForward.fog[65].dispatcher droppedJobsSLA_class_1 903
scalar FogSequentialForward.fog[65].server[0] rho 1
scalar FogSequentialForward.fog[65].server[0] congestionRatio 0
scalar FogSequentialForward.fog[65].server[0] totalJobs 15321
scalar FogSequentialForward.fog[65].server[0] droppedJobsQueue 1033
scalar FogSequentialForward.fog[65].server[0] droppedJobsTimout 0
scalar FogSequentialForward.fog[65].server[0] droppedJobsSLA 9711
scalar FogSequentialForward.fog[65].server[0] droppedJobsTotal 10744
scalar FogSequentialForward.fog[66].dispatcher localJobs 15250
scalar FogSequentialForward.fog[66].dispatcher internalJobs 16058
scalar FogSequentialForward.fog[66].dispatcher externalJobs 5278779
scalar FogSequentialForward.fog[66].dispatcher remoteJobs 5278697
scalar FogSequentialForward.fog[66].dispatcher probeQueries 0
[...]
scalar FogSequentialForward.fog[84].dispatcher remoteJobs 5279956
scalar FogSequentialForward.fog[84].dispatcher probeQueries 0
scalar FogSequentialForward.fog[84].dispatcher probeAnswers 0
scalar FogSequentialForward.fog[84].dispatcher droppedJobsSLA 902
scalar FogSequentialForward.fog[84].dispatcher jobs_class_1 5296171
scalar FogSequentialForward.fog[84].dispatcher remoteJobs_class_1 5279956
scalar FogSequentialForward.fog[84].dispatcher localJobs_class_1 15313
scalar FogSequentialForward.fog[84].dispatcher droppedJobsSLA_class_1 902
scalar FogSequentialForward.fog[84].server[0] rho 1
scalar FogSequentialForward.fog[84].server[0] congestionRatio 0
scalar FogSequentialForward.fog[84].server[0] totalJobs 15313
scalar FogSequentialForward.fog[84].server[0] droppedJobsQueue 1036
scalar FogSequentialForward.fog[84].server[0] droppedJobsTimout 0
scalar FogSequentialForward.fog[84].server[0] droppedJobsSLA 9626
scalar FogSequentialForward.fog[84].server[0] droppedJobsTotal 10662
scalar FogSequentialForward.fog[85].dispatcher localJobs 15226
scalar FogSequentialForward.fog[85].dispatcher internalJobs 16182
scalar FogSequentialForward.fog[85].dispatcher externalJobs 5284828
scalar FogSequentialForward.fog[85].dispatcher remoteJobs 5284827
scalar FogSequentialForward.fog[85].dispatcher probeQueries 0
scalar FogSequentialForward.fog[85].dispatcher probeAnswers 0
scalar FogSequentialForward.fog[85].dispatcher droppedJobsSLA 957
scalar FogSequentialForward.fog[85].dispatcher jobs_class_1 5301010
scalar FogSequentialForward.fog[85].dispatcher remoteJobs_class_1 5284827
scalar FogSequentialForward.fog[85].dispatcher localJobs_class_1 15226
scalar FogSequentialForward.fog[85].dispatcher droppedJobsSLA_class_1 957
scalar FogSequentialForward.fog[85].server[0] rho 0.99999916553497
scalar FogSequentialForward.fog[85].server[0] congestionRatio 0
scalar FogSequentialForward.fog[85].server[0] totalJobs 15226
scalar FogSequentialForward.fog[85].server[0] droppedJobsQueue 1025
scalar FogSequentialForward.fog[85].server[0] droppedJobsTimout 0
scalar FogSequentialForward.fog[85].server[0] droppedJobsSLA 9596
scalar FogSequentialForward.fog[85].server[0] droppedJobsTotal 10621
scalar FogSequentialForward.fog[86].dispatcher localJobs 15284
scalar FogSequentialForward.fog[86].dispatcher internalJobs 16214
scalar FogSequentialForward.fog[86].dispatcher externalJobs 5284297
scalar FogSequentialForward.fog[86].dispatcher remoteJobs 5284352
scalar FogSequentialForward.fog[86].dispatcher probeQueries 0
scalar FogSequentialForward.fog[86].dispatcher probeAnswers 0
scalar FogSequentialForward.fog[86].dispatcher droppedJobsSLA 875
scalar FogSequentialForward.fog[86].dispatcher jobs_class_1 5300511
scalar FogSequentialForward.fog[86].dispatcher remoteJobs_class_1 5284352
scalar FogSequentialForward.fog[86].dispatcher localJobs_class_1 15284
scalar FogSequentialForward.fog[86].dispatcher droppedJobsSLA_class_1 875
scalar FogSequentialForward.fog[86].server[0] rho 1
scalar FogSequentialForward.fog[86].server[0] congestionRatio 0
scalar FogSequentialForward.fog[86].server[0] totalJobs 15284
scalar FogSequentialForward.fog[86].server[0] droppedJobsQueue 1034
scalar FogSequentialForward.fog[86].server[0] droppedJobsTimout 0
scalar FogSequentialForward.fog[86].server[0] droppedJobsSLA 9626
scalar FogSequentialForward.fog[86].server[0] droppedJobsTotal 10660
scalar FogSequentialForward.fog[87].dispatcher localJobs 15345
scalar FogSequentialForward.fog[87].dispatcher internalJobs 16272
scalar FogSequentialForward.fog[87].dispatcher externalJobs 5285888
scalar FogSequentialForward.fog[87].dispatcher remoteJobs 5285925
scalar FogSequentialForward.fog[87].dispatcher probeQueries 0
scalar FogSequentialForward.fog[87].dispatcher probeAnswers 0
scalar FogSequentialForward.fog[87].dispatcher droppedJobsSLA 890
scalar FogSequentialForward.fog[87].dispatcher jobs_class_1 5302160
scalar FogSequentialForward.fog[87].dispatcher remoteJobs_class_1 5285925
scalar FogSequentialForward.fog[87].dispatcher localJobs_class_1 15345
scalar FogSequentialForward.fog[87].dispatcher droppedJobsSLA_class_1 890
scalar FogSequentialForward.fog[87].server[0] rho 1
scalar FogSequentialForward.fog[87].server[0] congestionRatio 0
scalar FogSequentialForward.fog[87].server[0] totalJobs 15345
scalar FogSequentialForward.fog[87].server[0] droppedJobsQueue 1037
scalar FogSequentialForward.fog[87].server[0] droppedJobsTimout 0
scalar FogSequentialForward.fog[87].server[0] droppedJobsSLA 9667
scalar FogSequentialForward.fog[87].server[0] droppedJobsTotal 10704
scalar FogSequentialForward.fog[88].dispatcher localJobs 15337
scalar FogSequentialForward.fog[88].dispatcher internalJobs 16324
scalar FogSequentialForward.fog[88].dispatcher externalJobs 5284606
scalar FogSequentialForward.fog[88].dispatcher remoteJobs 5284740
scalar FogSequentialForward.fog[88].dispatcher probeQueries 0
scalar FogSequentialForward.fog[88].dispatcher probeAnswers 0
scalar FogSequentialForward.fog[88].dispatcher droppedJobsSLA 853
scalar FogSequentialForward.fog[88].dispatcher jobs_class_1 5300930
scalar FogSequentialForward.fog[88].dispatcher remoteJobs_class_1 5284740
scalar FogSequentialForward.fog[88].dispatcher localJobs_class_1 15337
scalar FogSequentialForward.fog[88].dispatcher droppedJobsSLA_class_1 853
scalar FogSequentialForward.fog[88].server[0] rho 0.99996221065521
scalar FogSequentialForward.fog[88].server[0] congestionRatio 0
scalar FogSequentialForward.fog[88].server[0] totalJobs 15337
scalar FogSequentialForward.fog[88].server[0] droppedJobsQueue 1035
scalar FogSequentialForward.fog[88].server[0] droppedJobsTimout 0
scalar FogSequentialForward.fog[88].server[0] droppedJobsSLA 9688
scalar FogSequentialForward.fog[88].server[0] droppedJobsTotal 10723
scalar FogSequentialForward.fog[89].dispatcher localJobs 15332
scalar FogSequentialForward.fog[89].dispatcher internalJobs 16318
scalar FogSequentialForward.fog[89].dispatcher externalJobs 5284635
scalar FogSequentialForward.fog[89].dispatcher remoteJobs 5284708
scalar FogSequentialForward.fog[89].dispatcher probeQueries 0
scalar FogSequentialForward.fog[89].dispatcher probeAnswers 0
scalar FogSequentialForward.fog[89].dispatcher droppedJobsSLA 913
scalar FogSequentialForward.fog[89].dispatcher jobs_class_1 5300953
scalar FogSequentialForward.fog[89].dispatcher remoteJobs_class_1 5284708
scalar FogSequentialForward.fog[89].dispatcher localJobs_class_1 15332
scalar FogSequentialForward.fog[89].dispatcher droppedJobsSLA_class_1 913
scalar FogSequentialForward.fog[89].server[0] rho 0.99986809492111
scalar FogSequentialForward.fog[89].server[0] congestionRatio 0
scalar FogSequentialForward.fog[89].server[0] totalJobs 15332
scalar FogSequentialForward.fog[89].server[0] droppedJobsQueue 1036
scalar FogSequentialForward.fog[89].server[0] droppedJobsTimout 0
scalar FogSequentialForward.fog[89].server[0] droppedJobsSLA 9653
scalar FogSequentialForward.fog[89].server[0] droppedJobsTotal 10689
scalar FogSequentialForward.fog[90].dispatcher localJobs 15261
scalar FogSequentialForward.fog[90].dispatcher internalJobs 16035
scalar FogSequentialForward.fog[90].dispatcher externalJobs 5280235
scalar FogSequentialForward.fog[90].dispatcher remoteJobs 5280106
scalar FogSequentialForward.fog[90].dispatcher probeQueries 0
scalar FogSequentialForward.fog[90].dispatcher probeAnswers 0
scalar FogSequentialForward.fog[90].dispatcher droppedJobsSLA 903
scalar FogSequentialForward.fog[90].dispatcher jobs_class_1 5296270
scalar FogSequentialForward.fog[90].dispatcher remoteJobs_class_1 5280106
scalar FogSequentialForward.fog[90].dispatcher localJobs_class_1 15261
scalar FogSequentialForward.fog[90].dispatcher droppedJobsSLA_class_1 903
scalar FogSequentialForward.fog[90].server[0] rho 1
scalar FogSequentialForward.fog[90].server[0] congestionRatio 0
scalar FogSequentialForward.fog[90].server[0] totalJobs 15261
scalar FogSequentialForward.fog[90].server[0] droppedJobsQueue 1027
scalar FogSequentialForward.fog[90].server[0] droppedJobsTimout 0
scalar FogSequentialForward.fog[90].server[0] droppedJobsSLA 9595
scalar FogSequentialForward.fog[90].server[0] droppedJobsTotal 10622
scalar FogSequentialForward.fog[91].dispatcher localJobs 15280
scalar FogSequentialForward.fog[91].dispatcher internalJobs 16262
scalar FogSequentialForward.fog[91].dispatcher externalJobs 5284175
scalar FogSequentialForward.fog[91].dispatcher remoteJobs 5284280
scalar FogSequentialForward.fog[91].dispatcher probeQueries 0
scalar FogSequentialForward.fog[91].dispatcher probeAnswers 0
scalar FogSequentialForward.fog[91].dispatcher droppedJobsSLA 877
scalar FogSequentialForward.fog[91].dispatcher jobs_class_1 5300437
scalar FogSequentialForward.fog[91].dispatcher remoteJobs_class_1 5284280
scalar FogSequentialForward.fog[91].dispatcher localJobs_class_1 15280
scalar FogSequentialForward.fog[91].dispatcher droppedJobsSLA_class_1 877
scalar FogSequentialForward.fog[91].server[0] rho 1
scalar FogSequentialForward.fog[91].server[0] congestionRatio 0
scalar FogSequentialForward.fog[91].server[0] totalJobs 15280
scalar FogSequentialForward.fog[91].server[0] droppedJobsQueue 1029
scalar FogSequentialForward.fog[91].server[0] droppedJobsTimout 0
scalar FogSequentialForward.fog[91].server[0] droppedJobsSLA 9588
scalar FogSequentialForward.fog[91].server[0] droppedJobsTotal 10617
scalar FogSequentialForward.fog[92].dispatcher localJobs 15362
scalar FogSequentialForward.fog[92].dispatcher internalJobs 16379
scalar FogSequentialForward.fog[92].dispatcher externalJobs 5286343
scalar FogSequentialForward.fog[92].dispatcher remoteJobs 5286514
scalar FogSequentialForward.fog[92].dispatcher probeQueries 0
scalar FogSequentialForward.fog[92].dispatcher probeAnswers 0
scalar FogSequentialForward.fog[92].dispatcher droppedJobsSLA 846
scalar FogSequentialForward.fog[92].dispatcher jobs_class_1 5302722
scalar FogSequentialForward.fog[92].dispatcher remoteJobs_class_1 5286514
scalar FogSequentialForward.fog[92].dispatcher localJobs_class_1 15362
scalar FogSequentialForward.fog[92].dispatcher droppedJobsSLA_class_1 846
scalar FogSequentialForward.fog[92].server[0] rho 1
scalar FogSequentialForward.fog[92].server[0] congestionRatio 0
scalar FogSequentialForward.fog[92].server[0] totalJobs 15362
scalar FogSequentialForward.fog[92].server[0] droppedJobsQueue 1036
scalar FogSequentialForward.fog[92].server[0] droppedJobsTimout 0
scalar FogSequentialForward.fog[92].server[0] droppedJobsSLA 9699
scalar FogSequentialForward.fog[92].server[0] droppedJobsTotal 10735
scalar FogSequentialForward.fog[93].dispatcher localJobs 15293
scalar FogSequentialForward.fog[93].dispatcher internalJobs 16142
scalar FogSequentialForward.fog[93].dispatcher externalJobs 5279103
scalar FogSequentialForward.fog[93].dispatcher remoteJobs 5279010
scalar FogSequentialForward.fog[93].dispatcher probeQueries 0
scalar FogSequentialForward.fog[93].dispatcher probeAnswers 0
scalar FogSequentialForward.fog[93].dispatcher droppedJobsSLA 942
scalar FogSequentialForward.fog[93].dispatcher jobs_class_1 5295245
scalar FogSequentialForward.fog[93].dispatcher remoteJobs_class_1 5279010
scalar FogSequentialForward.fog[93].dispatcher localJobs_class_1 15293
scalar FogSequentialForward.fog[93].dispatcher droppedJobsSLA_class_1 942
scalar FogSequentialForward.fog[93].server[0] rho 0.99999988079071
scalar FogSequentialForward.fog[93].server[0] congestionRatio 0
scalar FogSequentialForward.fog[93].server[0] totalJobs 15293
scalar FogSequentialForward.fog[93].server[0] droppedJobsQueue 1035
scalar FogSequentialForward.fog[93].server[0] droppedJobsTimout 0
scalar FogSequentialForward.fog[93].server[0] droppedJobsSLA 9623
scalar FogSequentialForward.fog[93].server[0] droppedJobsTotal 10658
scalar FogSequentialForward.fog[94].dispatcher localJobs 15286
scalar FogSequentialForward.fog[94].dispatcher internalJobs 16036
scalar FogSequentialForward.fog[94].dispatcher externalJobs 5283409
scalar FogSequentialForward.fog[94].dispatcher remoteJobs 5283203
scalar FogSequentialForward.fog[94].dispatcher probeQueries 0
scalar FogSequentialForward.fog[94].dispatcher probeAnswers 0
scalar FogSequentialForward.fog[94].dispatcher droppedJobsSLA 956
scalar FogSequentialForward.fog[94].dispatcher jobs_class_1 5299445
scalar FogSequentialForward.fog[94].dispatcher remoteJobs_class_1 5283203
scalar FogSequentialForward.fog[94].dispatcher localJobs_class_1 15286
scalar FogSequentialForward.fog[94].dispatcher droppedJobsSLA_class_1 956
scalar FogSequentialForward.fog[94].server[0] rho 1
scalar FogSequentialForward.fog[94].server[0] congestionRatio 0
scalar FogSequentialForward.fog[94].server[0] totalJobs 15286
scalar FogSequentialForward.fog[94].server[0] droppedJobsQueue 1032
scalar FogSequentialForward.fog[94].server[0] droppedJobsTimout 0
scalar FogSequentialForward.fog[94].server[0] droppedJobsSLA 9669
scalar FogSequentialForward.fog[94].server[0] droppedJobsTotal 10701
scalar FogSequentialForward.fog[95].dispatcher localJobs 15361
scalar FogSequentialForward.fog[95].dispatcher internalJobs 16353
scalar FogSequentialForward.fog[95].dispatcher externalJobs 5283379
scalar FogSequentialForward.fog[95].dispatcher remoteJobs 5283446
scalar FogSequentialForward.fog[95].dispatcher probeQueries 0
scalar FogSequentialForward.fog[95].dispatcher probeAnswers 0
scalar FogSequentialForward.fog[95].dispatcher droppedJobsSLA 925
scalar FogSequentialForward.fog[95].dispatcher jobs_class_1 5299732
scalar FogSequentialForward.fog[95].dispatcher remoteJobs_class_1 5283446
scalar FogSequentialForward.fog[95].dispatcher localJobs_class_1 15361
scalar FogSequentialForward.fog[95].dispatcher droppedJobsSLA_class_1 925
scalar FogSequentialForward.fog[95].server[0] rho 1
scalar FogSequentialForward.fog[95].server[0] congestionRatio 0
scalar FogSequentialForward.fog[95].server[0] totalJobs 15361
scalar FogSequentialForward.fog[95].server[0] droppedJobsQueue 1038
scalar FogSequentialForward.fog[95].server[0] droppedJobsTimout 0
scalar FogSequentialForward.fog[95].server[0] droppedJobsSLA 9696
scalar FogSequentialForward.fog[95].server[0] droppedJobsTotal 10734
scalar FogSequentialForward.fog[96].dispatcher localJobs 15352
scalar FogSequentialForward.fog[96].dispatcher internalJobs 16098
scalar FogSequentialForward.fog[96].dispatcher externalJobs 5285518
scalar FogSequentialForward.fog[96].dispatcher remoteJobs 5285347
scalar FogSequentialForward.fog[96].dispatcher probeQueries 0
scalar FogSequentialForward.fog[96].dispatcher probeAnswers 0
scalar FogSequentialForward.fog[96].dispatcher droppedJobsSLA 917
scalar FogSequentialForward.fog[96].dispatcher jobs_class_1 5301616
scalar FogSequentialForward.fog[96].dispatcher remoteJobs_class_1 5285347
scalar FogSequentialForward.fog[96].dispatcher localJobs_class_1 15352
scalar FogSequentialForward.fog[96].dispatcher droppedJobsSLA_class_1 917
scalar FogSequentialForward.fog[96].server[0] rho 0.99999994039536
scalar FogSequentialForward.fog[96].server[0] congestionRatio 0
scalar FogSequentialForward.fog[96].server[0] totalJobs 15352
scalar FogSequentialForward.fog[96].server[0] droppedJobsQueue 1041
scalar FogSequentialForward.fog[96].server[0] droppedJobsTimout 0
scalar FogSequentialForward.fog[96].server[0] droppedJobsSLA 9708
scalar FogSequentialForward.fog[96].server[0] droppedJobsTotal 10749
scalar FogSequentialForward.fog[97].dispatcher localJobs 15245
scalar FogSequentialForward.fog[97].dispatcher internalJobs 16365
scalar FogSequentialForward.fog[97].dispatcher externalJobs 5287880
scalar FogSequentialForward.fog[97].dispatcher remoteJobs 5288152
scalar FogSequentialForward.fog[97].dispatcher probeQueries 0
scalar FogSequentialForward.fog[97].dispatcher probeAnswers 0
scalar FogSequentialForward.fog[97].dispatcher droppedJobsSLA 848
scalar FogSequentialForward.fog[97].dispatcher jobs_class_1 5304245
scalar FogSequentialForward.fog[97].dispatcher remoteJobs_class_1 5288152
scalar FogSequentialForward.fog[97].dispatcher localJobs_class_1 15245
scalar FogSequentialForward.fog[97].dispatcher droppedJobsSLA_class_1 848
scalar FogSequentialForward.fog[97].server[0] rho 0.99998205900192
scalar FogSequentialForward.fog[97].server[0] congestionRatio 0
scalar FogSequentialForward.fog[97].server[0] totalJobs 15245
scalar FogSequentialForward.fog[97].server[0] droppedJobsQueue 1029
scalar FogSequentialForward.fog[97].server[0] droppedJobsTimout 0
scalar FogSequentialForward.fog[97].server[0] droppedJobsSLA 9625
scalar FogSequentialForward.fog[97].server[0] droppedJobsTotal 10654
scalar FogSequentialForward.fog[98].dispatcher localJobs 15234
scalar FogSequentialForward.fog[98].dispatcher internalJobs 16411
scalar FogSequentialForward.fog[98].dispatcher externalJobs 5280792
scalar FogSequentialForward.fog[98].dispatcher remoteJobs 5281010
scalar FogSequentialForward.fog[98].dispatcher probeQueries 0
scalar FogSequentialForward.fog[98].dispatcher probeAnswers 0
scalar FogSequentialForward.fog[98].dispatcher droppedJobsSLA 959
scalar FogSequentialForward.fog[98].dispatcher jobs_class_1 5297203
scalar FogSequentialForward.fog[98].dispatcher remoteJobs_class_1 5281010
scalar FogSequentialForward.fog[98].dispatcher localJobs_class_1 15234
scalar FogSequentialForward.fog[98].dispatcher droppedJobsSLA_class_1 959
scalar FogSequentialForward.fog[98].server[0] rho 1
scalar FogSequentialForward.fog[98].server[0] congestionRatio 0
scalar FogSequentialForward.fog[98].server[0] totalJobs 15234
scalar FogSequentialForward.fog[98].server[0] droppedJobsQueue 1029
scalar FogSequentialForward.fog[98].server[0] droppedJobsTimout 0
scalar FogSequentialForward.fog[98].server[0] droppedJobsSLA 9591
scalar FogSequentialForward.fog[98].server[0] droppedJobsTotal 10620
scalar FogSequentialForward.fog[99].dispatcher localJobs 15261
scalar FogSequentialForward.fog[99].dispatcher internalJobs 16252
scalar FogSequentialForward.fog[99].dispatcher externalJobs 5282935
scalar FogSequentialForward.fog[99].dispatcher remoteJobs 5283058
scalar FogSequentialForward.fog[99].dispatcher probeQueries 0
scalar FogSequentialForward.fog[99].dispatcher probeAnswers 0
scalar FogSequentialForward.fog[99].dispatcher droppedJobsSLA 868
scalar FogSequentialForward.fog[99].dispatcher jobs_class_1 5299187
scalar FogSequentialForward.fog[99].dispatcher remoteJobs_class_1 5283058
scalar FogSequentialForward.fog[99].dispatcher localJobs_class_1 15261
scalar FogSequentialForward.fog[99].dispatcher droppedJobsSLA_class_1 868
scalar FogSequentialForward.fog[99].server[0] rho 0.99999976158142
scalar FogSequentialForward.fog[99].server[0] congestionRatio 0
scalar FogSequentialForward.fog[99].server[0] totalJobs 15261
scalar FogSequentialForward.fog[99].server[0] droppedJobsQueue 1029
scalar FogSequentialForward.fog[99].server[0] droppedJobsTimout 0
scalar FogSequentialForward.fog[99].server[0] droppedJobsSLA 9591
scalar FogSequentialForward.fog[99].server[0] droppedJobsTotal 10620
scalar FogSequentialForward.sink avg_responseTime_1 13.232216861303
scalar FogSequentialForward.sink p90_responseTime_1 1.580256354744
scalar FogSequentialForward.sink med_responseTime_1 1.580256354744
scalar FogSequentialForward.sink avg_delayTime_1 0
scalar FogSequentialForward.sink p90_delayTime_1 0
scalar FogSequentialForward.sink med_delayTime_1 0
scalar FogSequentialForward.sink avg_queuingTime_1 9.2441954193956
scalar FogSequentialForward.sink p90_queuingTime_1 0
scalar FogSequentialForward.sink med_queuingTime_1 0
scalar FogSequentialForward.sink avg_serviceTime_1 1.6725335826833
scalar FogSequentialForward.sink p90_serviceTime_1 1.499111098169
scalar FogSequentialForward.sink med_serviceTime_1 1.499111098169
scalar FogSequentialForward.sink avg_balancerTime_1 2.3154878592241
scalar FogSequentialForward.sink p90_balancerTime_1 0
scalar FogSequentialForward.sink med_balancerTime_1 0
scalar FogSequentialForward.sink avg_balancerCount_1 139.65196761823
scalar FogSequentialForward.sink p90_balancerCount_1 1
scalar FogSequentialForward.sink med_balancerCount_1 1

