version 2
run Fog-mul_001-rho_05-thr_6-2-20190712-23:01:37-11895
attr configname Fog-mul_001-rho_05-thr_6
attr datetime 20190712-23:01:37
attr experiment Fog-mul_001-rho_05-thr_6
attr inifile FogSequentialForward.ini
attr iterationvars ""
attr iterationvarsf ""
attr measurement ""
attr network FogSequentialForward
attr processid 11895
attr repetition 2
attr replication #2
attr resultdir results
attr runnumber 2
attr seedset 2
param FogSequentialForward.proctimeMul 0.01
param FogSequentialForward.rho 0.5
param FogSequentialForward.fog[*].dispatcher.thr 6
param FogSequentialForward.nSources 100
param FogSequentialForward.rho 0.9
param FogSequentialForward.proctimeMul 1.0
param FogSequentialForward.source[*].appId 1
param FogSequentialForward.source[*].realTime true
param FogSequentialForward.source[*].multiHop true
param FogSequentialForward.fog[*].nServers 1
param FogSequentialForward.fog[*].dispatcher.fanOut 1
param FogSequentialForward.fog[*].server[*].timeSlice -1s
param FogSequentialForward.fog[*].server[*].timeout -1s
param FogSequentialForward.fog[*].server[*].capacity 20
param FogSequentialForward.fog[*].server[*].fifo true
param FogSequentialForward.fog[*].server[*].maxServiceTime -1s
param FogSequentialForward.fog[*].dispatcher.thr 1

scalar FogSequentialForward.fog[0].dispatcher localJobs 841217
scalar FogSequentialForward.fog[0].dispatcher internalJobs 902268
scalar FogSequentialForward.fog[0].dispatcher externalJobs 2849233
scalar FogSequentialForward.fog[0].dispatcher remoteJobs 2849989
scalar FogSequentialForward.fog[0].dispatcher probeQueries 0
scalar FogSequentialForward.fog[0].dispatcher probeAnswers 0
scalar FogSequentialForward.fog[0].dispatcher droppedJobsSLA 60295
scalar FogSequentialForward.fog[0].dispatcher jobs_class_1 3751501
scalar FogSequentialForward.fog[0].dispatcher remoteJobs_class_1 2849989
scalar FogSequentialForward.fog[0].dispatcher localJobs_class_1 841217
scalar FogSequentialForward.fog[0].dispatcher droppedJobsSLA_class_1 60295
scalar FogSequentialForward.fog[0].server[0] rho 0.99999386072159
scalar FogSequentialForward.fog[0].server[0] congestionRatio 0
scalar FogSequentialForward.fog[0].server[0] totalJobs 841217
scalar FogSequentialForward.fog[0].server[0] droppedJobsQueue 4
scalar FogSequentialForward.fog[0].server[0] droppedJobsTimout 0
scalar FogSequentialForward.fog[0].server[0] droppedJobsSLA 268991
scalar FogSequentialForward.fog[0].server[0] droppedJobsTotal 268995
scalar FogSequentialForward.fog[1].dispatcher localJobs 841547
scalar FogSequentialForward.fog[1].dispatcher internalJobs 901423
scalar FogSequentialForward.fog[1].dispatcher externalJobs 2854735
scalar FogSequentialForward.fog[1].dispatcher remoteJobs 2854405
scalar FogSequentialForward.fog[1].dispatcher probeQueries 0
scalar FogSequentialForward.fog[1].dispatcher probeAnswers 0
scalar FogSequentialForward.fog[1].dispatcher droppedJobsSLA 60206
scalar FogSequentialForward.fog[1].dispatcher jobs_class_1 3756158
scalar FogSequentialForward.fog[1].dispatcher remoteJobs_class_1 2854405
scalar FogSequentialForward.fog[1].dispatcher localJobs_class_1 841547
scalar FogSequentialForward.fog[1].dispatcher droppedJobsSLA_class_1 60206
scalar FogSequentialForward.fog[1].server[0] rho 0.99999284744263
scalar FogSequentialForward.fog[1].server[0] congestionRatio 0
scalar FogSequentialForward.fog[1].server[0] totalJobs 841547
scalar FogSequentialForward.fog[1].server[0] droppedJobsQueue 8
scalar FogSequentialForward.fog[1].server[0] droppedJobsTimout 0
scalar FogSequentialForward.fog[1].server[0] droppedJobsSLA 269130
scalar FogSequentialForward.fog[1].server[0] droppedJobsTotal 269138
scalar FogSequentialForward.fog[2].dispatcher localJobs 841619
scalar FogSequentialForward.fog[2].dispatcher internalJobs 898971
scalar FogSequentialForward.fog[2].dispatcher externalJobs 2855234
scalar FogSequentialForward.fog[2].dispatcher remoteJobs 2852145
scalar FogSequentialForward.fog[2].dispatcher probeQueries 0
scalar FogSequentialForward.fog[2].dispatcher probeAnswers 0
scalar FogSequentialForward.fog[2].dispatcher droppedJobsSLA 60441
scalar FogSequentialForward.fog[2].dispatcher jobs_class_1 3754205
scalar FogSequentialForward.fog[2].dispatcher remoteJobs_class_1 2852145
scalar FogSequentialForward.fog[2].dispatcher localJobs_class_1 841619
scalar FogSequentialForward.fog[2].dispatcher droppedJobsSLA_class_1 60441
scalar FogSequentialForward.fog[2].server[0] rho 0.99999433755875
scalar FogSequentialForward.fog[2].server[0] congestionRatio 0
scalar FogSequentialForward.fog[2].server[0] totalJobs 841619
scalar FogSequentialForward.fog[2].server[0] droppedJobsQueue 6
scalar FogSequentialForward.fog[2].server[0] droppedJobsTimout 0
scalar FogSequentialForward.fog[2].server[0] droppedJobsSLA 269872
scalar FogSequentialForward.fog[2].server[0] droppedJobsTotal 269878
scalar FogSequentialForward.fog[3].dispatcher localJobs 841411
scalar FogSequentialForward.fog[3].dispatcher internalJobs 903843
scalar FogSequentialForward.fog[3].dispatcher externalJobs 2851355
scalar FogSequentialForward.fog[3].dispatcher remoteJobs 2853764
scalar FogSequentialForward.fog[3].dispatcher probeQueries 0
scalar FogSequentialForward.fog[3].dispatcher probeAnswers 0
scalar FogSequentialForward.fog[3].dispatcher droppedJobsSLA 60023
scalar FogSequentialForward.fog[3].dispatcher jobs_class_1 3755198
scalar FogSequentialForward.fog[3].dispatcher remoteJobs_class_1 2853764
scalar FogSequentialForward.fog[3].dispatcher localJobs_class_1 841411
scalar FogSequentialForward.fog[3].dispatcher droppedJobsSLA_class_1 60023
scalar FogSequentialForward.fog[3].server[0] rho 0.99999326467514
scalar FogSequentialForward.fog[3].server[0] congestionRatio 0
scalar FogSequentialForward.fog[3].server[0] totalJobs 841411
scalar FogSequentialForward.fog[3].server[0] droppedJobsQueue 4
scalar FogSequentialForward.fog[3].server[0] droppedJobsTimout 0
scalar FogSequentialForward.fog[3].server[0] droppedJobsSLA 268607
scalar FogSequentialForward.fog[3].server[0] droppedJobsTotal 268611
scalar FogSequentialForward.fog[4].dispatcher localJobs 842201
scalar FogSequentialForward.fog[4].dispatcher internalJobs 902055
scalar FogSequentialForward.fog[4].dispatcher externalJobs 2853996
scalar FogSequentialForward.fog[4].dispatcher remoteJobs 2853497
scalar FogSequentialForward.fog[4].dispatcher probeQueries 0
scalar FogSequentialForward.fog[4].dispatcher probeAnswers 0
scalar FogSequentialForward.fog[4].dispatcher droppedJobsSLA 60353
scalar FogSequentialForward.fog[4].dispatcher jobs_class_1 3756051
scalar FogSequentialForward.fog[4].dispatcher remoteJobs_class_1 2853497
scalar FogSequentialForward.fog[4].dispatcher localJobs_class_1 842201
scalar FogSequentialForward.fog[4].dispatcher droppedJobsSLA_class_1 60353
scalar FogSequentialForward.fog[4].server[0] rho 0.9999982714653
scalar FogSequentialForward.fog[4].server[0] congestionRatio 0
scalar FogSequentialForward.fog[4].server[0] totalJobs 842201
scalar FogSequentialForward.fog[4].server[0] droppedJobsQueue 4
scalar FogSequentialForward.fog[4].server[0] droppedJobsTimout 0
scalar FogSequentialForward.fog[4].server[0] droppedJobsSLA 269900
scalar FogSequentialForward.fog[4].server[0] droppedJobsTotal 269904
scalar FogSequentialForward.fog[5].dispatcher localJobs 841524
scalar FogSequentialForward.fog[5].dispatcher internalJobs 902136
scalar FogSequentialForward.fog[5].dispatcher externalJobs 2851479
scalar FogSequentialForward.fog[5].dispatcher remoteJobs 2852044
scalar FogSequentialForward.fog[5].dispatcher probeQueries 0
scalar FogSequentialForward.fog[5].dispatcher probeAnswers 0
scalar FogSequentialForward.fog[5].dispatcher droppedJobsSLA 60047
scalar FogSequentialForward.fog[5].dispatcher jobs_class_1 3753615
scalar FogSequentialForward.fog[5].dispatcher remoteJobs_class_1 2852044
scalar FogSequentialForward.fog[5].dispatcher localJobs_class_1 841524
scalar FogSequentialForward.fog[5].dispatcher droppedJobsSLA_class_1 60047
scalar FogSequentialForward.fog[5].server[0] rho 0.99999570846558
scalar FogSequentialForward.fog[5].server[0] congestionRatio 0
scalar FogSequentialForward.fog[5].server[0] totalJobs 841524
scalar FogSequentialForward.fog[5].server[0] droppedJobsQueue 3
scalar FogSequentialForward.fog[5].server[0] droppedJobsTimout 0
scalar FogSequentialForward.fog[5].server[0] droppedJobsSLA 269251
scalar FogSequentialForward.fog[5].server[0] droppedJobsTotal 269254
scalar FogSequentialForward.fog[6].dispatcher localJobs 841598
scalar FogSequentialForward.fog[6].dispatcher internalJobs 901680
scalar FogSequentialForward.fog[6].dispatcher externalJobs 2852208
scalar FogSequentialForward.fog[6].dispatcher remoteJobs 2851578
scalar FogSequentialForward.fog[6].dispatcher probeQueries 0
scalar FogSequentialForward.fog[6].dispatcher probeAnswers 0
scalar FogSequentialForward.fog[6].dispatcher droppedJobsSLA 60712
scalar FogSequentialForward.fog[6].dispatcher jobs_class_1 3753888
scalar FogSequentialForward.fog[6].dispatcher remoteJobs_class_1 2851578
scalar FogSequentialForward.fog[6].dispatcher localJobs_class_1 841598
scalar FogSequentialForward.fog[6].dispatcher droppedJobsSLA_class_1 60712
scalar FogSequentialForward.fog[6].server[0] rho 0.99999183416367
scalar FogSequentialForward.fog[6].server[0] congestionRatio 0
scalar FogSequentialForward.fog[6].server[0] totalJobs 841598
scalar FogSequentialForward.fog[6].server[0] droppedJobsQueue 4
scalar FogSequentialForward.fog[6].server[0] droppedJobsTimout 0
scalar FogSequentialForward.fog[6].server[0] droppedJobsSLA 269570
scalar FogSequentialForward.fog[6].server[0] droppedJobsTotal 269574
scalar FogSequentialForward.fog[7].dispatcher localJobs 841520
scalar FogSequentialForward.fog[7].dispatcher internalJobs 901478
scalar FogSequentialForward.fog[7].dispatcher externalJobs 2852099
scalar FogSequentialForward.fog[7].dispatcher remoteJobs 2851706
scalar FogSequentialForward.fog[7].dispatcher probeQueries 0
scalar FogSequentialForward.fog[7].dispatcher probeAnswers 0
scalar FogSequentialForward.fog[7].dispatcher droppedJobsSLA 60351
scalar FogSequentialForward.fog[7].dispatcher jobs_class_1 3753577
scalar FogSequentialForward.fog[7].dispatcher remoteJobs_class_1 2851706
scalar FogSequentialForward.fog[7].dispatcher localJobs_class_1 841520
scalar FogSequentialForward.fog[7].dispatcher droppedJobsSLA_class_1 60351
scalar FogSequentialForward.fog[7].server[0] rho 0.99999475479126
scalar FogSequentialForward.fog[7].server[0] congestionRatio 0
scalar FogSequentialForward.fog[7].server[0] totalJobs 841520
scalar FogSequentialForward.fog[7].server[0] droppedJobsQueue 5
scalar FogSequentialForward.fog[7].server[0] droppedJobsTimout 0
scalar FogSequentialForward.fog[7].server[0] droppedJobsSLA 269312
scalar FogSequentialForward.fog[7].server[0] droppedJobsTotal 269317
scalar FogSequentialForward.fog[8].dispatcher localJobs 840883
scalar FogSequentialForward.fog[8].dispatcher internalJobs 901476
scalar FogSequentialForward.fog[8].dispatcher externalJobs 2850506
scalar FogSequentialForward.fog[8].dispatcher remoteJobs 2850772
scalar FogSequentialForward.fog[8].dispatcher probeQueries 0
scalar FogSequentialForward.fog[8].dispatcher probeAnswers 0
scalar FogSequentialForward.fog[8].dispatcher droppedJobsSLA 60327
scalar FogSequentialForward.fog[8].dispatcher jobs_class_1 3751982
scalar FogSequentialForward.fog[8].dispatcher remoteJobs_class_1 2850772
scalar FogSequentialForward.fog[8].dispatcher localJobs_class_1 840883
scalar FogSequentialForward.fog[8].dispatcher droppedJobsSLA_class_1 60327
scalar FogSequentialForward.fog[8].server[0] rho 0.99999690055847
scalar FogSequentialForward.fog[8].server[0] congestionRatio 0
scalar FogSequentialForward.fog[8].server[0] totalJobs 840883
scalar FogSequentialForward.fog[8].server[0] droppedJobsQueue 10
scalar FogSequentialForward.fog[8].server[0] droppedJobsTimout 0
scalar FogSequentialForward.fog[8].server[0] droppedJobsSLA 268531
scalar FogSequentialForward.fog[8].server[0] droppedJobsTotal 268541
scalar FogSequentialForward.fog[9].dispatcher localJobs 841981
scalar FogSequentialForward.fog[9].dispatcher internalJobs 901286
scalar FogSequentialForward.fog[9].dispatcher externalJobs 2852053
scalar FogSequentialForward.fog[9].dispatcher remoteJobs 2851109
scalar FogSequentialForward.fog[9].dispatcher probeQueries 0
scalar FogSequentialForward.fog[9].dispatcher probeAnswers 0
scalar FogSequentialForward.fog[9].dispatcher droppedJobsSLA 60249
scalar FogSequentialForward.fog[9].dispatcher jobs_class_1 3753339
scalar FogSequentialForward.fog[9].dispatcher remoteJobs_class_1 2851109
scalar FogSequentialForward.fog[9].dispatcher localJobs_class_1 841981
scalar FogSequentialForward.fog[9].dispatcher droppedJobsSLA_class_1 60249
scalar FogSequentialForward.fog[9].server[0] rho 0.99999666213989
scalar FogSequentialForward.fog[9].server[0] congestionRatio 0
scalar FogSequentialForward.fog[9].server[0] totalJobs 841981
scalar FogSequentialForward.fog[9].server[0] droppedJobsQueue 3
scalar FogSequentialForward.fog[9].server[0] droppedJobsTimout 0
scalar FogSequentialForward.fog[9].server[0] droppedJobsSLA 270451
scalar FogSequentialForward.fog[9].server[0] droppedJobsTotal 270454
scalar FogSequentialForward.fog[10].dispatcher localJobs 841795
scalar FogSequentialForward.fog[10].dispatcher internalJobs 901526
scalar FogSequentialForward.fog[10].dispatcher externalJobs 2851989
scalar FogSequentialForward.fog[10].dispatcher remoteJobs 2851728
scalar FogSequentialForward.fog[10].dispatcher probeQueries 0
scalar FogSequentialForward.fog[10].dispatcher probeAnswers 0
scalar FogSequentialForward.fog[10].dispatcher droppedJobsSLA 59992
scalar FogSequentialForward.fog[10].dispatcher jobs_class_1 3753515
scalar FogSequentialForward.fog[10].dispatcher remoteJobs_class_1 2851728
scalar FogSequentialForward.fog[10].dispatcher localJobs_class_1 841795
scalar FogSequentialForward.fog[10].dispatcher droppedJobsSLA_class_1 59992
scalar FogSequentialForward.fog[10].server[0] rho 0.99999004602432
scalar FogSequentialForward.fog[10].server[0] congestionRatio 0
scalar FogSequentialForward.fog[10].server[0] totalJobs 841795
scalar FogSequentialForward.fog[10].server[0] droppedJobsQueue 5
scalar FogSequentialForward.fog[10].server[0] droppedJobsTimout 0
scalar FogSequentialForward.fog[10].server[0] droppedJobsSLA 269493
scalar FogSequentialForward.fog[10].server[0] droppedJobsTotal 269498
scalar FogSequentialForward.fog[11].dispatcher localJobs 841130
scalar FogSequentialForward.fog[11].dispatcher internalJobs 901636
scalar FogSequentialForward.fog[11].dispatcher externalJobs 2850793
scalar FogSequentialForward.fog[11].dispatcher remoteJobs 2850930
scalar FogSequentialForward.fog[11].dispatcher probeQueries 0
scalar FogSequentialForward.fog[11].dispatcher probeAnswers 0
scalar FogSequentialForward.fog[11].dispatcher droppedJobsSLA 60369
scalar FogSequentialForward.fog[11].dispatcher jobs_class_1 3752429
scalar FogSequentialForward.fog[11].dispatcher remoteJobs_class_1 2850930
scalar FogSequentialForward.fog[11].dispatcher localJobs_class_1 841130
scalar FogSequentialForward.fog[11].dispatcher droppedJobsSLA_class_1 60369
scalar FogSequentialForward.fog[11].server[0] rho 0.99999767541885
scalar FogSequentialForward.fog[11].server[0] congestionRatio 0
scalar FogSequentialForward.fog[11].server[0] totalJobs 841130
scalar FogSequentialForward.fog[11].server[0] droppedJobsQueue 6
scalar FogSequentialForward.fog[11].server[0] droppedJobsTimout 0
scalar FogSequentialForward.fog[11].server[0] droppedJobsSLA 269207
scalar FogSequentialForward.fog[11].server[0] droppedJobsTotal 269213
scalar FogSequentialForward.fog[12].dispatcher localJobs 841332
scalar FogSequentialForward.fog[12].dispatcher internalJobs 900459
scalar FogSequentialForward.fog[12].dispatcher externalJobs 2850120
scalar FogSequentialForward.fog[12].dispatcher remoteJobs 2849288
scalar FogSequentialForward.fog[12].dispatcher probeQueries 0
scalar FogSequentialForward.fog[12].dispatcher probeAnswers 0
scalar FogSequentialForward.fog[12].dispatcher droppedJobsSLA 59959
scalar FogSequentialForward.fog[12].dispatcher jobs_class_1 3750579
scalar FogSequentialForward.fog[12].dispatcher remoteJobs_class_1 2849288
scalar FogSequentialForward.fog[12].dispatcher localJobs_class_1 841332
scalar FogSequentialForward.fog[12].dispatcher droppedJobsSLA_class_1 59959
scalar FogSequentialForward.fog[12].server[0] rho 0.99999529123306
scalar FogSequentialForward.fog[12].server[0] congestionRatio 0
scalar FogSequentialForward.fog[12].server[0] totalJobs 841332
scalar FogSequentialForward.fog[12].server[0] droppedJobsQueue 3
scalar FogSequentialForward.fog[12].server[0] droppedJobsTimout 0
scalar FogSequentialForward.fog[12].server[0] droppedJobsSLA 269130
scalar FogSequentialForward.fog[12].server[0] droppedJobsTotal 269133
scalar FogSequentialForward.fog[13].dispatcher localJobs 840881
scalar FogSequentialForward.fog[13].dispatcher internalJobs 901986
scalar FogSequentialForward.fog[13].dispatcher externalJobs 2850011
scalar FogSequentialForward.fog[13].dispatcher remoteJobs 2850487
scalar FogSequentialForward.fog[13].dispatcher probeQueries 0
scalar FogSequentialForward.fog[13].dispatcher probeAnswers 0
scalar FogSequentialForward.fog[13].dispatcher droppedJobsSLA 60629
scalar FogSequentialForward.fog[13].dispatcher jobs_class_1 3751997
scalar FogSequentialForward.fog[13].dispatcher remoteJobs_class_1 2850487
scalar FogSequentialForward.fog[13].dispatcher localJobs_class_1 840881
scalar FogSequentialForward.fog[13].dispatcher droppedJobsSLA_class_1 60629
scalar FogSequentialForward.fog[13].server[0] rho 0.99999469518661
scalar FogSequentialForward.fog[13].server[0] congestionRatio 0
scalar FogSequentialForward.fog[13].server[0] totalJobs 840881
scalar FogSequentialForward.fog[13].server[0] droppedJobsQueue 5
scalar FogSequentialForward.fog[13].server[0] droppedJobsTimout 0
scalar FogSequentialForward.fog[13].server[0] droppedJobsSLA 268516
scalar FogSequentialForward.fog[13].server[0] droppedJobsTotal 268521
scalar FogSequentialForward.fog[14].dispatcher localJobs 841319
scalar FogSequentialForward.fog[14].dispatcher internalJobs 902585
scalar FogSequentialForward.fog[14].dispatcher externalJobs 2852058
scalar FogSequentialForward.fog[14].dispatcher remoteJobs 2853187
scalar FogSequentialForward.fog[14].dispatcher probeQueries 0
scalar FogSequentialForward.fog[14].dispatcher probeAnswers 0
scalar FogSequentialForward.fog[14].dispatcher droppedJobsSLA 60137
scalar FogSequentialForward.fog[14].dispatcher jobs_class_1 3754643
scalar FogSequentialForward.fog[14].dispatcher remoteJobs_class_1 2853187
scalar FogSequentialForward.fog[14].dispatcher localJobs_class_1 841319
scalar FogSequentialForward.fog[14].dispatcher droppedJobsSLA_class_1 60137
scalar FogSequentialForward.fog[14].server[0] rho 0.99999666213989
scalar FogSequentialForward.fog[14].server[0] congestionRatio 0
scalar FogSequentialForward.fog[14].server[0] totalJobs 841319
scalar FogSequentialForward.fog[14].server[0] droppedJobsQueue 4
scalar FogSequentialForward.fog[14].server[0] droppedJobsTimout 0
scalar FogSequentialForward.fog[14].server[0] droppedJobsSLA 269568
scalar FogSequentialForward.fog[14].server[0] droppedJobsTotal 269572
scalar FogSequentialForward.fog[15].dispatcher localJobs 841254
scalar FogSequentialForward.fog[15].dispatcher internalJobs 900837
scalar FogSequentialForward.fog[15].dispatcher externalJobs 2852377
scalar FogSequentialForward.fog[15].dispatcher remoteJobs 2852133
scalar FogSequentialForward.fog[15].dispatcher probeQueries 0
scalar FogSequentialForward.fog[15].dispatcher probeAnswers 0
scalar FogSequentialForward.fog[15].dispatcher droppedJobsSLA 59827
scalar FogSequentialForward.fog[15].dispatcher jobs_class_1 3753214
scalar FogSequentialForward.fog[15].dispatcher remoteJobs_class_1 2852133
scalar FogSequentialForward.fog[15].dispatcher localJobs_class_1 841254
scalar FogSequentialForward.fog[15].dispatcher droppedJobsSLA_class_1 59827
scalar FogSequentialForward.fog[15].server[0] rho 0.99999523162842
scalar FogSequentialForward.fog[15].server[0] congestionRatio 0
scalar FogSequentialForward.fog[15].server[0] totalJobs 841254
scalar FogSequentialForward.fog[15].server[0] droppedJobsQueue 8
scalar FogSequentialForward.fog[15].server[0] droppedJobsTimout 0
scalar FogSequentialForward.fog[15].server[0] droppedJobsSLA 269450
scalar FogSequentialForward.fog[15].server[0] droppedJobsTotal 269458
scalar FogSequentialForward.fog[16].dispatcher localJobs 841746
scalar FogSequentialForward.fog[16].dispatcher internalJobs 902704
scalar FogSequentialForward.fog[16].dispatcher externalJobs 2853911
scalar FogSequentialForward.fog[16].dispatcher remoteJobs 2854782
scalar FogSequentialForward.fog[16].dispatcher probeQueries 0
scalar FogSequentialForward.fog[16].dispatcher probeAnswers 0
scalar FogSequentialForward.fog[16].dispatcher droppedJobsSLA 60087
scalar FogSequentialForward.fog[16].dispatcher jobs_class_1 3756615
scalar FogSequentialForward.fog[16].dispatcher remoteJobs_class_1 2854782
scalar FogSequentialForward.fog[16].dispatcher localJobs_class_1 841746
scalar FogSequentialForward.fog[16].dispatcher droppedJobsSLA_class_1 60087
scalar FogSequentialForward.fog[16].server[0] rho 0.99999266862869
scalar FogSequentialForward.fog[16].server[0] congestionRatio 0
scalar FogSequentialForward.fog[16].server[0] totalJobs 841746
scalar FogSequentialForward.fog[16].server[0] droppedJobsQueue 9
scalar FogSequentialForward.fog[16].server[0] droppedJobsTimout 0
scalar FogSequentialForward.fog[16].server[0] droppedJobsSLA 269534
scalar FogSequentialForward.fog[16].server[0] droppedJobsTotal 269543
scalar FogSequentialForward.fog[17].dispatcher localJobs 841611
scalar FogSequentialForward.fog[17].dispatcher internalJobs 901727
scalar FogSequentialForward.fog[17].dispatcher externalJobs 2851568
scalar FogSequentialForward.fog[17].dispatcher remoteJobs 2851217
scalar FogSequentialForward.fog[17].dispatcher probeQueries 0
scalar FogSequentialForward.fog[17].dispatcher probeAnswers 0
scalar FogSequentialForward.fog[17].dispatcher droppedJobsSLA 60467
scalar FogSequentialForward.fog[17].dispatcher jobs_class_1 3753295
scalar FogSequentialForward.fog[17].dispatcher remoteJobs_class_1 2851217
scalar FogSequentialForward.fog[17].dispatcher localJobs_class_1 841611
scalar FogSequentialForward.fog[17].dispatcher droppedJobsSLA_class_1 60467
scalar FogSequentialForward.fog[17].server[0] rho 0.99999499320984
scalar FogSequentialForward.fog[17].server[0] congestionRatio 0
scalar FogSequentialForward.fog[17].server[0] totalJobs 841611
scalar FogSequentialForward.fog[17].server[0] droppedJobsQueue 7
scalar FogSequentialForward.fog[17].server[0] droppedJobsTimout 0
scalar FogSequentialForward.fog[17].server[0] droppedJobsSLA 269184
scalar FogSequentialForward.fog[17].server[0] droppedJobsTotal 269191
scalar FogSequentialForward.fog[18].dispatcher localJobs 841514
scalar FogSequentialForward.fog[18].dispatcher internalJobs 902202
scalar FogSequentialForward.fog[18].dispatcher externalJobs 2854442
scalar FogSequentialForward.fog[18].dispatcher remoteJobs 2854911
scalar FogSequentialForward.fog[18].dispatcher probeQueries 0
scalar FogSequentialForward.fog[18].dispatcher probeAnswers 0
scalar FogSequentialForward.fog[18].dispatcher droppedJobsSLA 60219
scalar FogSequentialForward.fog[18].dispatcher jobs_class_1 3756644
scalar FogSequentialForward.fog[18].dispatcher remoteJobs_class_1 2854911
scalar FogSequentialForward.fog[18].dispatcher localJobs_class_1 841514
scalar FogSequentialForward.fog[18].dispatcher droppedJobsSLA_class_1 60219
scalar FogSequentialForward.fog[18].server[0] rho 0.99999439716339
scalar FogSequentialForward.fog[18].server[0] congestionRatio 0
scalar FogSequentialForward.fog[18].server[0] totalJobs 841514
scalar FogSequentialForward.fog[18].server[0] droppedJobsQueue 3
scalar FogSequentialForward.fog[18].server[0] droppedJobsTimout 0
scalar FogSequentialForward.fog[18].server[0] droppedJobsSLA 268685
scalar FogSequentialForward.fog[18].server[0] droppedJobsTotal 268688
scalar FogSequentialForward.fog[19].dispatcher localJobs 841641
scalar FogSequentialForward.fog[19].dispatcher internalJobs 901973
scalar FogSequentialForward.fog[19].dispatcher externalJobs 2854646
scalar FogSequentialForward.fog[19].dispatcher remoteJobs 2854786
scalar FogSequentialForward.fog[19].dispatcher probeQueries 0
scalar FogSequentialForward.fog[19].dispatcher probeAnswers 0
scalar FogSequentialForward.fog[19].dispatcher droppedJobsSLA 60192
scalar FogSequentialForward.fog[19].dispatcher jobs_class_1 3756619
scalar FogSequentialForward.fog[19].dispatcher remoteJobs_class_1 2854786
scalar FogSequentialForward.fog[19].dispatcher localJobs_class_1 841641
scalar FogSequentialForward.fog[19].dispatcher droppedJobsSLA_class_1 60192
scalar FogSequentialForward.fog[19].server[0] rho 0.9999920129776
scalar FogSequentialForward.fog[19].server[0] congestionRatio 0
scalar FogSequentialForward.fog[19].server[0] totalJobs 841641
scalar FogSequentialForward.fog[19].server[0] droppedJobsQueue 9
scalar FogSequentialForward.fog[19].server[0] droppedJobsTimout 0
scalar FogSequentialForward.fog[19].server[0] droppedJobsSLA 270041
scalar FogSequentialForward.fog[19].server[0] droppedJobsTotal 270050
scalar FogSequentialForward.fog[20].dispatcher localJobs 840905
scalar FogSequentialForward.fog[20].dispatcher internalJobs 902812
scalar FogSequentialForward.fog[20].dispatcher externalJobs 2851940
scalar FogSequentialForward.fog[20].dispatcher remoteJobs 2853587
scalar FogSequentialForward.fog[20].dispatcher probeQueries 0
scalar FogSequentialForward.fog[20].dispatcher probeAnswers 0
scalar FogSequentialForward.fog[20].dispatcher droppedJobsSLA 60260
scalar FogSequentialForward.fog[20].dispatcher jobs_class_1 3754752
scalar FogSequentialForward.fog[20].dispatcher remoteJobs_class_1 2853587
scalar FogSequentialForward.fog[20].dispatcher localJobs_class_1 840905
scalar FogSequentialForward.fog[20].dispatcher droppedJobsSLA_class_1 60260
scalar FogSequentialForward.fog[20].server[0] rho 0.99999648332596
scalar FogSequentialForward.fog[20].server[0] congestionRatio 0
scalar FogSequentialForward.fog[20].server[0] totalJobs 840905
scalar FogSequentialForward.fog[20].server[0] droppedJobsQueue 4
scalar FogSequentialForward.fog[20].server[0] droppedJobsTimout 0
scalar FogSequentialForward.fog[20].server[0] droppedJobsSLA 268735
scalar FogSequentialForward.fog[20].server[0] droppedJobsTotal 268739
scalar FogSequentialForward.fog[21].dispatcher localJobs 841824
scalar FogSequentialForward.fog[21].dispatcher internalJobs 901623
scalar FogSequentialForward.fog[21].dispatcher externalJobs 2849887
scalar FogSequentialForward.fog[21].dispatcher remoteJobs 2849310
scalar FogSequentialForward.fog[21].dispatcher probeQueries 0
scalar FogSequentialForward.fog[21].dispatcher probeAnswers 0
scalar FogSequentialForward.fog[21].dispatcher droppedJobsSLA 60376
scalar FogSequentialForward.fog[21].dispatcher jobs_class_1 3751510
scalar FogSequentialForward.fog[21].dispatcher remoteJobs_class_1 2849310
scalar FogSequentialForward.fog[21].dispatcher localJobs_class_1 841824
scalar FogSequentialForward.fog[21].dispatcher droppedJobsSLA_class_1 60376
scalar FogSequentialForward.fog[21].server[0] rho 0.99999570846558
scalar FogSequentialForward.fog[21].server[0] congestionRatio 0
scalar FogSequentialForward.fog[21].server[0] totalJobs 841824
scalar FogSequentialForward.fog[21].server[0] droppedJobsQueue 7
scalar FogSequentialForward.fog[21].server[0] droppedJobsTimout 0
scalar FogSequentialForward.fog[21].server[0] droppedJobsSLA 269657
scalar FogSequentialForward.fog[21].server[0] droppedJobsTotal 269664
scalar FogSequentialForward.fog[22].dispatcher localJobs 842089
scalar FogSequentialForward.fog[22].dispatcher internalJobs 903207
scalar FogSequentialForward.fog[22].dispatcher externalJobs 2854989
scalar FogSequentialForward.fog[22].dispatcher remoteJobs 2855829
scalar FogSequentialForward.fog[22].dispatcher probeQueries 0
scalar FogSequentialForward.fog[22].dispatcher probeAnswers 0
scalar FogSequentialForward.fog[22].dispatcher droppedJobsSLA 60278
scalar FogSequentialForward.fog[22].dispatcher jobs_class_1 3758196
scalar FogSequentialForward.fog[22].dispatcher remoteJobs_class_1 2855829
scalar FogSequentialForward.fog[22].dispatcher localJobs_class_1 842089
scalar FogSequentialForward.fog[22].dispatcher droppedJobsSLA_class_1 60278
scalar FogSequentialForward.fog[22].server[0] rho 0.99999445676804
scalar FogSequentialForward.fog[22].server[0] congestionRatio 0
scalar FogSequentialForward.fog[22].server[0] totalJobs 842089
scalar FogSequentialForward.fog[22].server[0] droppedJobsQueue 4
scalar FogSequentialForward.fog[22].server[0] droppedJobsTimout 0
scalar FogSequentialForward.fog[22].server[0] droppedJobsSLA 270413
scalar FogSequentialForward.fog[22].server[0] droppedJobsTotal 270417
scalar FogSequentialForward.fog[23].dispatcher localJobs 841867
scalar FogSequentialForward.fog[23].dispatcher internalJobs 901419
scalar FogSequentialForward.fog[23].dispatcher externalJobs 2854497
scalar FogSequentialForward.fog[23].dispatcher remoteJobs 2853614
scalar FogSequentialForward.fog[23].dispatcher probeQueries 0
scalar FogSequentialForward.fog[23].dispatcher probeAnswers 0
scalar FogSequentialForward.fog[23].dispatcher droppedJobsSLA 60435
scalar FogSequentialForward.fog[23].dispatcher jobs_class_1 3755916
scalar FogSequentialForward.fog[23].dispatcher remoteJobs_class_1 2853614
scalar FogSequentialForward.fog[23].dispatcher localJobs_class_1 841867
scalar FogSequentialForward.fog[23].dispatcher droppedJobsSLA_class_1 60435
scalar FogSequentialForward.fog[23].server[0] rho 0.9999885559082
scalar FogSequentialForward.fog[23].server[0] congestionRatio 0
scalar FogSequentialForward.fog[23].server[0] totalJobs 841867
scalar FogSequentialForward.fog[23].server[0] droppedJobsQueue 6
scalar FogSequentialForward.fog[23].server[0] droppedJobsTimout 0
scalar FogSequentialForward.fog[23].server[0] droppedJobsSLA 269717
scalar FogSequentialForward.fog[23].server[0] droppedJobsTotal 269723
scalar FogSequentialForward.fog[24].dispatcher localJobs 841326
scalar FogSequentialForward.fog[24].dispatcher internalJobs 901827
scalar FogSequentialForward.fog[24].dispatcher externalJobs 2850536
scalar FogSequentialForward.fog[24].dispatcher remoteJobs 2850229
scalar FogSequentialForward.fog[24].dispatcher probeQueries 0
scalar FogSequentialForward.fog[24].dispatcher probeAnswers 0
scalar FogSequentialForward.fog[24].dispatcher droppedJobsSLA 60808
scalar FogSequentialForward.fog[24].dispatcher jobs_class_1 3752363
scalar FogSequentialForward.fog[24].dispatcher remoteJobs_class_1 2850229
scalar FogSequentialForward.fog[24].dispatcher localJobs_class_1 841326
scalar FogSequentialForward.fog[24].dispatcher droppedJobsSLA_class_1 60808
scalar FogSequentialForward.fog[24].server[0] rho 0.99999284744263
scalar FogSequentialForward.fog[24].server[0] congestionRatio 0
scalar FogSequentialForward.fog[24].server[0] totalJobs 841326
scalar FogSequentialForward.fog[24].server[0] droppedJobsQueue 3
scalar FogSequentialForward.fog[24].server[0] droppedJobsTimout 0
scalar FogSequentialForward.fog[24].server[0] droppedJobsSLA 269062
scalar FogSequentialForward.fog[24].server[0] droppedJobsTotal 269065
scalar FogSequentialForward.fog[25].dispatcher localJobs 841283
scalar FogSequentialForward.fog[25].dispatcher internalJobs 901697
scalar FogSequentialForward.fog[25].dispatcher externalJobs 2853349
scalar FogSequentialForward.fog[25].dispatcher remoteJobs 2853606
scalar FogSequentialForward.fog[25].dispatcher probeQueries 0
scalar FogSequentialForward.fog[25].dispatcher probeAnswers 0
scalar FogSequentialForward.fog[25].dispatcher droppedJobsSLA 60157
scalar FogSequentialForward.fog[25].dispatcher jobs_class_1 3755046
scalar FogSequentialForward.fog[25].dispatcher remoteJobs_class_1 2853606
scalar FogSequentialForward.fog[25].dispatcher localJobs_class_1 841283
scalar FogSequentialForward.fog[25].dispatcher droppedJobsSLA_class_1 60157
scalar FogSequentialForward.fog[25].server[0] rho 0.99999105930328
scalar FogSequentialForward.fog[25].server[0] congestionRatio 0
scalar FogSequentialForward.fog[25].server[0] totalJobs 841283
scalar FogSequentialForward.fog[25].server[0] droppedJobsQueue 4
scalar FogSequentialForward.fog[25].server[0] droppedJobsTimout 0
scalar FogSequentialForward.fog[25].server[0] droppedJobsSLA 268730
scalar FogSequentialForward.fog[25].server[0] droppedJobsTotal 268734
scalar FogSequentialForward.fog[26].dispatcher localJobs 841797
scalar FogSequentialForward.fog[26].dispatcher internalJobs 902470
scalar FogSequentialForward.fog[26].dispatcher externalJobs 2852037
scalar FogSequentialForward.fog[26].dispatcher remoteJobs 2852014
scalar FogSequentialForward.fog[26].dispatcher probeQueries 0
scalar FogSequentialForward.fog[26].dispatcher probeAnswers 0
scalar FogSequentialForward.fog[26].dispatcher droppedJobsSLA 60696
scalar FogSequentialForward.fog[26].dispatcher jobs_class_1 3754507
scalar FogSequentialForward.fog[26].dispatcher remoteJobs_class_1 2852014
scalar FogSequentialForward.fog[26].dispatcher localJobs_class_1 841797
scalar FogSequentialForward.fog[26].dispatcher droppedJobsSLA_class_1 60696
scalar FogSequentialForward.fog[26].server[0] rho 0.99998903274536
scalar FogSequentialForward.fog[26].server[0] congestionRatio 0
scalar FogSequentialForward.fog[26].server[0] totalJobs 841797
scalar FogSequentialForward.fog[26].server[0] droppedJobsQueue 3
scalar FogSequentialForward.fog[26].server[0] droppedJobsTimout 0
scalar FogSequentialForward.fog[26].server[0] droppedJobsSLA 269532
scalar FogSequentialForward.fog[26].server[0] droppedJobsTotal 269535
scalar FogSequentialForward.fog[27].dispatcher localJobs 840809
scalar FogSequentialForward.fog[27].dispatcher internalJobs 901865
scalar FogSequentialForward.fog[27].dispatcher externalJobs 2856378
scalar FogSequentialForward.fog[27].dispatcher remoteJobs 2856928
scalar FogSequentialForward.fog[27].dispatcher probeQueries 0
scalar FogSequentialForward.fog[27].dispatcher probeAnswers 0
scalar FogSequentialForward.fog[27].dispatcher droppedJobsSLA 60506
scalar FogSequentialForward.fog[27].dispatcher jobs_class_1 3758243
scalar FogSequentialForward.fog[27].dispatcher remoteJobs_class_1 2856928
scalar FogSequentialForward.fog[27].dispatcher localJobs_class_1 840809
scalar FogSequentialForward.fog[27].dispatcher droppedJobsSLA_class_1 60506
scalar FogSequentialForward.fog[27].server[0] rho 0.99999433755875
scalar FogSequentialForward.fog[27].server[0] congestionRatio 0
scalar FogSequentialForward.fog[27].server[0] totalJobs 840809
scalar FogSequentialForward.fog[27].server[0] droppedJobsQueue 8
scalar FogSequentialForward.fog[27].server[0] droppedJobsTimout 0
scalar FogSequentialForward.fog[27].server[0] droppedJobsSLA 269121
scalar FogSequentialForward.fog[27].server[0] droppedJobsTotal 269129
scalar FogSequentialForward.fog[28].dispatcher localJobs 841538
scalar FogSequentialForward.fog[28].dispatcher internalJobs 901946
scalar FogSequentialForward.fog[28].dispatcher externalJobs 2853787
scalar FogSequentialForward.fog[28].dispatcher remoteJobs 2854128
scalar FogSequentialForward.fog[28].dispatcher probeQueries 0
scalar FogSequentialForward.fog[28].dispatcher probeAnswers 0
scalar FogSequentialForward.fog[28].dispatcher droppedJobsSLA 60067
scalar FogSequentialForward.fog[28].dispatcher jobs_class_1 3755733
scalar FogSequentialForward.fog[28].dispatcher remoteJobs_class_1 2854128
scalar FogSequentialForward.fog[28].dispatcher localJobs_class_1 841538
scalar FogSequentialForward.fog[28].dispatcher droppedJobsSLA_class_1 60067
scalar FogSequentialForward.fog[28].server[0] rho 0.99999433755875
scalar FogSequentialForward.fog[28].server[0] congestionRatio 0
scalar FogSequentialForward.fog[28].server[0] totalJobs 841538
scalar FogSequentialForward.fog[28].server[0] droppedJobsQueue 6
scalar FogSequentialForward.fog[28].server[0] droppedJobsTimout 0
scalar FogSequentialForward.fog[28].server[0] droppedJobsSLA 269611
scalar FogSequentialForward.fog[28].server[0] droppedJobsTotal 269617
scalar FogSequentialForward.fog[29].dispatcher localJobs 841896
scalar FogSequentialForward.fog[29].dispatcher internalJobs 901183
scalar FogSequentialForward.fog[29].dispatcher externalJobs 2850678
scalar FogSequentialForward.fog[29].dispatcher remoteJobs 2849624
scalar FogSequentialForward.fog[29].dispatcher probeQueries 0
scalar FogSequentialForward.fog[29].dispatcher probeAnswers 0
scalar FogSequentialForward.fog[29].dispatcher droppedJobsSLA 60341
scalar FogSequentialForward.fog[29].dispatcher jobs_class_1 3751861
scalar FogSequentialForward.fog[29].dispatcher remoteJobs_class_1 2849624
scalar FogSequentialForward.fog[29].dispatcher localJobs_class_1 841896
scalar FogSequentialForward.fog[29].dispatcher droppedJobsSLA_class_1 60341
scalar FogSequentialForward.fog[29].server[0] rho 0.99999380111694
scalar FogSequentialForward.fog[29].server[0] congestionRatio 0
scalar FogSequentialForward.fog[29].server[0] totalJobs 841896
scalar FogSequentialForward.fog[29].server[0] droppedJobsQueue 1
scalar FogSequentialForward.fog[29].server[0] droppedJobsTimout 0
scalar FogSequentialForward.fog[29].server[0] droppedJobsSLA 269678
scalar FogSequentialForward.fog[29].server[0] droppedJobsTotal 269679
scalar FogSequentialForward.fog[30].dispatcher localJobs 841957
scalar FogSequentialForward.fog[30].dispatcher internalJobs 902425
scalar FogSequentialForward.fog[30].dispatcher externalJobs 2853556
scalar FogSequentialForward.fog[30].dispatcher remoteJobs 2853695
scalar FogSequentialForward.fog[30].dispatcher probeQueries 0
scalar FogSequentialForward.fog[30].dispatcher probeAnswers 0
scalar FogSequentialForward.fog[30].dispatcher droppedJobsSLA 60329
scalar FogSequentialForward.fog[30].dispatcher jobs_class_1 3755981
scalar FogSequentialForward.fog[30].dispatcher remoteJobs_class_1 2853695
scalar FogSequentialForward.fog[30].dispatcher localJobs_class_1 841957
scalar FogSequentialForward.fog[30].dispatcher droppedJobsSLA_class_1 60329
scalar FogSequentialForward.fog[30].server[0] rho 0.99999326467514
scalar FogSequentialForward.fog[30].server[0] congestionRatio 0
scalar FogSequentialForward.fog[30].server[0] totalJobs 841957
scalar FogSequentialForward.fog[30].server[0] droppedJobsQueue 8
scalar FogSequentialForward.fog[30].server[0] droppedJobsTimout 0
scalar FogSequentialForward.fog[30].server[0] droppedJobsSLA 269653
scalar FogSequentialForward.fog[30].server[0] droppedJobsTotal 269661
scalar FogSequentialForward.fog[31].dispatcher localJobs 841500
scalar FogSequentialForward.fog[31].dispatcher internalJobs 903811
scalar FogSequentialForward.fog[31].dispatcher externalJobs 2853377
scalar FogSequentialForward.fog[31].dispatcher remoteJobs 2855325
scalar FogSequentialForward.fog[31].dispatcher probeQueries 0
scalar FogSequentialForward.fog[31].dispatcher probeAnswers 0
scalar FogSequentialForward.fog[31].dispatcher droppedJobsSLA 60363
scalar FogSequentialForward.fog[31].dispatcher jobs_class_1 3757188
scalar FogSequentialForward.fog[31].dispatcher remoteJobs_class_1 2855325
scalar FogSequentialForward.fog[31].dispatcher localJobs_class_1 841500
scalar FogSequentialForward.fog[31].dispatcher droppedJobsSLA_class_1 60363
scalar FogSequentialForward.fog[31].server[0] rho 0.9999932050705
scalar FogSequentialForward.fog[31].server[0] congestionRatio 0
scalar FogSequentialForward.fog[31].server[0] totalJobs 841500
scalar FogSequentialForward.fog[31].server[0] droppedJobsQueue 1
scalar FogSequentialForward.fog[31].server[0] droppedJobsTimout 0
scalar FogSequentialForward.fog[31].server[0] droppedJobsSLA 269687
scalar FogSequentialForward.fog[31].server[0] droppedJobsTotal 269688
scalar FogSequentialForward.fog[32].dispatcher localJobs 841404
scalar FogSequentialForward.fog[32].dispatcher internalJobs 901128
scalar FogSequentialForward.fog[32].dispatcher externalJobs 2854713
scalar FogSequentialForward.fog[32].dispatcher remoteJobs 2854364
scalar FogSequentialForward.fog[32].dispatcher probeQueries 0
scalar FogSequentialForward.fog[32].dispatcher probeAnswers 0
scalar FogSequentialForward.fog[32].dispatcher droppedJobsSLA 60073
scalar FogSequentialForward.fog[32].dispatcher jobs_class_1 3755841
scalar FogSequentialForward.fog[32].dispatcher remoteJobs_class_1 2854364
scalar FogSequentialForward.fog[32].dispatcher localJobs_class_1 841404
scalar FogSequentialForward.fog[32].dispatcher droppedJobsSLA_class_1 60073
scalar FogSequentialForward.fog[32].server[0] rho 0.99998843669891
scalar FogSequentialForward.fog[32].server[0] congestionRatio 0
scalar FogSequentialForward.fog[32].server[0] totalJobs 841404
scalar FogSequentialForward.fog[32].server[0] droppedJobsQueue 3
scalar FogSequentialForward.fog[32].server[0] droppedJobsTimout 0
scalar FogSequentialForward.fog[32].server[0] droppedJobsSLA 268955
scalar FogSequentialForward.fog[32].server[0] droppedJobsTotal 268958
scalar FogSequentialForward.fog[33].dispatcher localJobs 841531
scalar FogSequentialForward.fog[33].dispatcher internalJobs 902184
scalar FogSequentialForward.fog[33].dispatcher externalJobs 2853682
scalar FogSequentialForward.fog[33].dispatcher remoteJobs 2854232
scalar FogSequentialForward.fog[33].dispatcher probeQueries 0
scalar FogSequentialForward.fog[33].dispatcher probeAnswers 0
scalar FogSequentialForward.fog[33].dispatcher droppedJobsSLA 60103
scalar FogSequentialForward.fog[33].dispatcher jobs_class_1 3755866
scalar FogSequentialForward.fog[33].dispatcher remoteJobs_class_1 2854232
scalar FogSequentialForward.fog[33].dispatcher localJobs_class_1 841531
scalar FogSequentialForward.fog[33].dispatcher droppedJobsSLA_class_1 60103
scalar FogSequentialForward.fog[33].server[0] rho 0.9999965429306
scalar FogSequentialForward.fog[33].server[0] congestionRatio 0
scalar FogSequentialForward.fog[33].server[0] totalJobs 841531
scalar FogSequentialForward.fog[33].server[0] droppedJobsQueue 5
scalar FogSequentialForward.fog[33].server[0] droppedJobsTimout 0
scalar FogSequentialForward.fog[33].server[0] droppedJobsSLA 269682
scalar FogSequentialForward.fog[33].server[0] droppedJobsTotal 269687
scalar FogSequentialForward.fog[34].dispatcher localJobs 842357
scalar FogSequentialForward.fog[34].dispatcher internalJobs 901494
scalar FogSequentialForward.fog[34].dispatcher externalJobs 2853363
scalar FogSequentialForward.fog[34].dispatcher remoteJobs 2852524
scalar FogSequentialForward.fog[34].dispatcher probeQueries 0
scalar FogSequentialForward.fog[34].dispatcher probeAnswers 0
scalar FogSequentialForward.fog[34].dispatcher droppedJobsSLA 59976
scalar FogSequentialForward.fog[34].dispatcher jobs_class_1 3754857
scalar FogSequentialForward.fog[34].dispatcher remoteJobs_class_1 2852524
scalar FogSequentialForward.fog[34].dispatcher localJobs_class_1 842357
scalar FogSequentialForward.fog[34].dispatcher droppedJobsSLA_class_1 59976
scalar FogSequentialForward.fog[34].server[0] rho 0.99999433755875
scalar FogSequentialForward.fog[34].server[0] congestionRatio 0
scalar FogSequentialForward.fog[34].server[0] totalJobs 842357
scalar FogSequentialForward.fog[34].server[0] droppedJobsQueue 2
scalar FogSequentialForward.fog[34].server[0] droppedJobsTimout 0
scalar FogSequentialForward.fog[34].server[0] droppedJobsSLA 270152
scalar FogSequentialForward.fog[34].server[0] droppedJobsTotal 270154
scalar FogSequentialForward.fog[35].dispatcher localJobs 841523
scalar FogSequentialForward.fog[35].dispatcher internalJobs 901224
scalar FogSequentialForward.fog[35].dispatcher externalJobs 2854880
scalar FogSequentialForward.fog[35].dispatcher remoteJobs 2854469
scalar FogSequentialForward.fog[35].dispatcher probeQueries 0
scalar FogSequentialForward.fog[35].dispatcher probeAnswers 0
scalar FogSequentialForward.fog[35].dispatcher droppedJobsSLA 60112
scalar FogSequentialForward.fog[35].dispatcher jobs_class_1 3756104
scalar FogSequentialForward.fog[35].dispatcher remoteJobs_class_1 2854469
scalar FogSequentialForward.fog[35].dispatcher localJobs_class_1 841523
scalar FogSequentialForward.fog[35].dispatcher droppedJobsSLA_class_1 60112
scalar FogSequentialForward.fog[35].server[0] rho 0.99999511241913
scalar FogSequentialForward.fog[35].server[0] congestionRatio 0
scalar FogSequentialForward.fog[35].server[0] totalJobs 841523
scalar FogSequentialForward.fog[35].server[0] droppedJobsQueue 3
scalar FogSequentialForward.fog[35].server[0] droppedJobsTimout 0
scalar FogSequentialForward.fog[35].server[0] droppedJobsSLA 269164
scalar FogSequentialForward.fog[35].server[0] droppedJobsTotal 269167
scalar FogSequentialForward.fog[36].dispatcher localJobs 841305
scalar FogSequentialForward.fog[36].dispatcher internalJobs 902859
scalar FogSequentialForward.fog[36].dispatcher externalJobs 2853929
scalar FogSequentialForward.fog[36].dispatcher remoteJobs 2855472
scalar FogSequentialForward.fog[36].dispatcher probeQueries 0
scalar FogSequentialForward.fog[36].dispatcher probeAnswers 0
scalar FogSequentialForward.fog[36].dispatcher droppedJobsSLA 60011
scalar FogSequentialForward.fog[36].dispatcher jobs_class_1 3756788
scalar FogSequentialForward.fog[36].dispatcher remoteJobs_class_1 2855472
scalar FogSequentialForward.fog[36].dispatcher localJobs_class_1 841305
scalar FogSequentialForward.fog[36].dispatcher droppedJobsSLA_class_1 60011
scalar FogSequentialForward.fog[36].server[0] rho 0.99999737739563
scalar FogSequentialForward.fog[36].server[0] congestionRatio 0
scalar FogSequentialForward.fog[36].server[0] totalJobs 841305
scalar FogSequentialForward.fog[36].server[0] droppedJobsQueue 5
scalar FogSequentialForward.fog[36].server[0] droppedJobsTimout 0
scalar FogSequentialForward.fog[36].server[0] droppedJobsSLA 269099
scalar FogSequentialForward.fog[36].server[0] droppedJobsTotal 269104
scalar FogSequentialForward.fog[37].dispatcher localJobs 841831
scalar FogSequentialForward.fog[37].dispatcher internalJobs 900951
scalar FogSequentialForward.fog[37].dispatcher externalJobs 2853175
scalar FogSequentialForward.fog[37].dispatcher remoteJobs 2852164
scalar FogSequentialForward.fog[37].dispatcher probeQueries 0
scalar FogSequentialForward.fog[37].dispatcher probeAnswers 0
scalar FogSequentialForward.fog[37].dispatcher droppedJobsSLA 60131
scalar FogSequentialForward.fog[37].dispatcher jobs_class_1 3754126
scalar FogSequentialForward.fog[37].dispatcher remoteJobs_class_1 2852164
scalar FogSequentialForward.fog[37].dispatcher localJobs_class_1 841831
scalar FogSequentialForward.fog[37].dispatcher droppedJobsSLA_class_1 60131
scalar FogSequentialForward.fog[37].server[0] rho 0.99999326467514
scalar FogSequentialForward.fog[37].server[0] congestionRatio 0
scalar FogSequentialForward.fog[37].server[0] totalJobs 841831
scalar FogSequentialForward.fog[37].server[0] droppedJobsQueue 3
scalar FogSequentialForward.fog[37].server[0] droppedJobsTimout 0
scalar FogSequentialForward.fog[37].server[0] droppedJobsSLA 269562
scalar FogSequentialForward.fog[37].server[0] droppedJobsTotal 269565
scalar FogSequentialForward.fog[38].dispatcher localJobs 841345
scalar FogSequentialForward.fog[38].dispatcher internalJobs 902608
scalar FogSequentialForward.fog[38].dispatcher externalJobs 2854846
scalar FogSequentialForward.fog[38].dispatcher remoteJobs 2855511
scalar FogSequentialForward.fog[38].dispatcher probeQueries 0
scalar FogSequentialForward.fog[38].dispatcher probeAnswers 0
scalar FogSequentialForward.fog[38].dispatcher droppedJobsSLA 60598
scalar FogSequentialForward.fog[38].dispatcher jobs_class_1 3757454
scalar FogSequentialForward.fog[38].dispatcher remoteJobs_class_1 2855511
scalar FogSequentialForward.fog[38].dispatcher localJobs_class_1 841345
scalar FogSequentialForward.fog[38].dispatcher droppedJobsSLA_class_1 60598
scalar FogSequentialForward.fog[38].server[0] rho 0.99999052286148
scalar FogSequentialForward.fog[38].server[0] congestionRatio 0
scalar FogSequentialForward.fog[38].server[0] totalJobs 841345
scalar FogSequentialForward.fog[38].server[0] droppedJobsQueue 3
scalar FogSequentialForward.fog[38].server[0] droppedJobsTimout 0
scalar FogSequentialForward.fog[38].server[0] droppedJobsSLA 268668
scalar FogSequentialForward.fog[38].server[0] droppedJobsTotal 268671
scalar FogSequentialForward.fog[39].dispatcher localJobs 841425
scalar FogSequentialForward.fog[39].dispatcher internalJobs 902044
scalar FogSequentialForward.fog[39].dispatcher externalJobs 2851779
scalar FogSequentialForward.fog[39].dispatcher remoteJobs 2852308
scalar FogSequentialForward.fog[39].dispatcher probeQueries 0
scalar FogSequentialForward.fog[39].dispatcher probeAnswers 0
scalar FogSequentialForward.fog[39].dispatcher droppedJobsSLA 60090
scalar FogSequentialForward.fog[39].dispatcher jobs_class_1 3753823
scalar FogSequentialForward.fog[39].dispatcher remoteJobs_class_1 2852308
scalar FogSequentialForward.fog[39].dispatcher localJobs_class_1 841425
scalar FogSequentialForward.fog[39].dispatcher droppedJobsSLA_class_1 60090
scalar FogSequentialForward.fog[39].server[0] rho 0.99999266862869
scalar FogSequentialForward.fog[39].server[0] congestionRatio 0
scalar FogSequentialForward.fog[39].server[0] totalJobs 841425
scalar FogSequentialForward.fog[39].server[0] droppedJobsQueue 3
scalar FogSequentialForward.fog[39].server[0] droppedJobsTimout 0
scalar FogSequentialForward.fog[39].server[0] droppedJobsSLA 268954
scalar FogSequentialForward.fog[39].server[0] droppedJobsTotal 268957
scalar FogSequentialForward.fog[40].dispatcher localJobs 841268
scalar FogSequentialForward.fog[40].dispatcher internalJobs 899798
scalar FogSequentialForward.fog[40].dispatcher externalJobs 2853687
scalar FogSequentialForward.fog[40].dispatcher remoteJobs 2851599
scalar FogSequentialForward.fog[40].dispatcher probeQueries 0
scalar FogSequentialForward.fog[40].dispatcher probeAnswers 0
scalar FogSequentialForward.fog[40].dispatcher droppedJobsSLA 60618
scalar FogSequentialForward.fog[40].dispatcher jobs_class_1 3753485
scalar FogSequentialForward.fog[40].dispatcher remoteJobs_class_1 2851599
scalar FogSequentialForward.fog[40].dispatcher localJobs_class_1 841268
scalar FogSequentialForward.fog[40].dispatcher droppedJobsSLA_class_1 60618
scalar FogSequentialForward.fog[40].server[0] rho 0.99999493360519
scalar FogSequentialForward.fog[40].server[0] congestionRatio 0
scalar FogSequentialForward.fog[40].server[0] totalJobs 841268
scalar FogSequentialForward.fog[40].server[0] droppedJobsQueue 4
scalar FogSequentialForward.fog[40].server[0] droppedJobsTimout 0
scalar FogSequentialForward.fog[40].server[0] droppedJobsSLA 269457
scalar FogSequentialForward.fog[40].server[0] droppedJobsTotal 269461
scalar FogSequentialForward.fog[41].dispatcher localJobs 840738
scalar FogSequentialForward.fog[41].dispatcher internalJobs 902068
scalar FogSequentialForward.fog[41].dispatcher externalJobs 2853148
scalar FogSequentialForward.fog[41].dispatcher remoteJobs 2854053
scalar FogSequentialForward.fog[41].dispatcher probeQueries 0
scalar FogSequentialForward.fog[41].dispatcher probeAnswers 0
scalar FogSequentialForward.fog[41].dispatcher droppedJobsSLA 60425
scalar FogSequentialForward.fog[41].dispatcher jobs_class_1 3755216
scalar FogSequentialForward.fog[41].dispatcher remoteJobs_class_1 2854053
scalar FogSequentialForward.fog[41].dispatcher localJobs_class_1 840738
scalar FogSequentialForward.fog[41].dispatcher droppedJobsSLA_class_1 60425
scalar FogSequentialForward.fog[41].server[0] rho 0.99999558925629
scalar FogSequentialForward.fog[41].server[0] congestionRatio 0
scalar FogSequentialForward.fog[41].server[0] totalJobs 840738
scalar FogSequentialForward.fog[41].server[0] droppedJobsQueue 4
scalar FogSequentialForward.fog[41].server[0] droppedJobsTimout 0
scalar FogSequentialForward.fog[41].server[0] droppedJobsSLA 268799
scalar FogSequentialForward.fog[41].server[0] droppedJobsTotal 268803
scalar FogSequentialForward.fog[42].dispatcher localJobs 841730
scalar FogSequentialForward.fog[42].dispatcher internalJobs 902262
scalar FogSequentialForward.fog[42].dispatcher externalJobs 2852478
scalar FogSequentialForward.fog[42].dispatcher remoteJobs 2852332
scalar FogSequentialForward.fog[42].dispatcher probeQueries 0
scalar FogSequentialForward.fog[42].dispatcher probeAnswers 0
scalar FogSequentialForward.fog[42].dispatcher droppedJobsSLA 60678
scalar FogSequentialForward.fog[42].dispatcher jobs_class_1 3754740
scalar FogSequentialForward.fog[42].dispatcher remoteJobs_class_1 2852332
scalar FogSequentialForward.fog[42].dispatcher localJobs_class_1 841730
scalar FogSequentialForward.fog[42].dispatcher droppedJobsSLA_class_1 60678
scalar FogSequentialForward.fog[42].server[0] rho 0.99999386072159
scalar FogSequentialForward.fog[42].server[0] congestionRatio 0
scalar FogSequentialForward.fog[42].server[0] totalJobs 841730
scalar FogSequentialForward.fog[42].server[0] droppedJobsQueue 6
scalar FogSequentialForward.fog[42].server[0] droppedJobsTimout 0
scalar FogSequentialForward.fog[42].server[0] droppedJobsSLA 269986
scalar FogSequentialForward.fog[42].server[0] droppedJobsTotal 269992
scalar FogSequentialForward.fog[43].dispatcher localJobs 840917
scalar FogSequentialForward.fog[43].dispatcher internalJobs 902123
scalar FogSequentialForward.fog[43].dispatcher externalJobs 2851527
scalar FogSequentialForward.fog[43].dispatcher remoteJobs 2852645
scalar FogSequentialForward.fog[43].dispatcher probeQueries 0
scalar FogSequentialForward.fog[43].dispatcher probeAnswers 0
scalar FogSequentialForward.fog[43].dispatcher droppedJobsSLA 60088
scalar FogSequentialForward.fog[43].dispatcher jobs_class_1 3753650
scalar FogSequentialForward.fog[43].dispatcher remoteJobs_class_1 2852645
scalar FogSequentialForward.fog[43].dispatcher localJobs_class_1 840917
scalar FogSequentialForward.fog[43].dispatcher droppedJobsSLA_class_1 60088
scalar FogSequentialForward.fog[43].server[0] rho 0.99999415874481
scalar FogSequentialForward.fog[43].server[0] congestionRatio 0
scalar FogSequentialForward.fog[43].server[0] totalJobs 840917
scalar FogSequentialForward.fog[43].server[0] droppedJobsQueue 3
scalar FogSequentialForward.fog[43].server[0] droppedJobsTimout 0
scalar FogSequentialForward.fog[43].server[0] droppedJobsSLA 268646
scalar FogSequentialForward.fog[43].server[0] droppedJobsTotal 268649
scalar FogSequentialForward.fog[44].dispatcher localJobs 841911
scalar FogSequentialForward.fog[44].dispatcher internalJobs 900827
scalar FogSequentialForward.fog[44].dispatcher externalJobs 2856417
scalar FogSequentialForward.fog[44].dispatcher remoteJobs 2855707
scalar FogSequentialForward.fog[44].dispatcher probeQueries 0
scalar FogSequentialForward.fog[44].dispatcher probeAnswers 0
scalar FogSequentialForward.fog[44].dispatcher droppedJobsSLA 59626
scalar FogSequentialForward.fog[44].dispatcher jobs_class_1 3757244
scalar FogSequentialForward.fog[44].dispatcher remoteJobs_class_1 2855707
scalar FogSequentialForward.fog[44].dispatcher localJobs_class_1 841911
scalar FogSequentialForward.fog[44].dispatcher droppedJobsSLA_class_1 59626
scalar FogSequentialForward.fog[44].server[0] rho 0.99999475479126
scalar FogSequentialForward.fog[44].server[0] congestionRatio 0
scalar FogSequentialForward.fog[44].server[0] totalJobs 841911
scalar FogSequentialForward.fog[44].server[0] droppedJobsQueue 2
scalar FogSequentialForward.fog[44].server[0] droppedJobsTimout 0
scalar FogSequentialForward.fog[44].server[0] droppedJobsSLA 269579
scalar FogSequentialForward.fog[44].server[0] droppedJobsTotal 269581
scalar FogSequentialForward.fog[45].dispatcher localJobs 841670
scalar FogSequentialForward.fog[45].dispatcher internalJobs 902322
scalar FogSequentialForward.fog[45].dispatcher externalJobs 2853486
scalar FogSequentialForward.fog[45].dispatcher remoteJobs 2854003
scalar FogSequentialForward.fog[45].dispatcher probeQueries 0
scalar FogSequentialForward.fog[45].dispatcher probeAnswers 0
scalar FogSequentialForward.fog[45].dispatcher droppedJobsSLA 60135
scalar FogSequentialForward.fog[45].dispatcher jobs_class_1 3755808
scalar FogSequentialForward.fog[45].dispatcher remoteJobs_class_1 2854003
scalar FogSequentialForward.fog[45].dispatcher localJobs_class_1 841670
scalar FogSequentialForward.fog[45].dispatcher droppedJobsSLA_class_1 60135
scalar FogSequentialForward.fog[45].server[0] rho 0.99998927116394
scalar FogSequentialForward.fog[45].server[0] congestionRatio 0
scalar FogSequentialForward.fog[45].server[0] totalJobs 841670
scalar FogSequentialForward.fog[45].server[0] droppedJobsQueue 3
scalar FogSequentialForward.fog[45].server[0] droppedJobsTimout 0
scalar FogSequentialForward.fog[45].server[0] droppedJobsSLA 269316
scalar FogSequentialForward.fog[45].server[0] droppedJobsTotal 269319
scalar FogSequentialForward.fog[46].dispatcher localJobs 841804
scalar FogSequentialForward.fog[46].dispatcher internalJobs 901000
scalar FogSequentialForward.fog[46].dispatcher externalJobs 2852529
scalar FogSequentialForward.fog[46].dispatcher remoteJobs 2851528
scalar FogSequentialForward.fog[46].dispatcher probeQueries 0
scalar FogSequentialForward.fog[46].dispatcher probeAnswers 0
scalar FogSequentialForward.fog[46].dispatcher droppedJobsSLA 60197
scalar FogSequentialForward.fog[46].dispatcher jobs_class_1 3753529
scalar FogSequentialForward.fog[46].dispatcher remoteJobs_class_1 2851528
scalar FogSequentialForward.fog[46].dispatcher localJobs_class_1 841804
scalar FogSequentialForward.fog[46].dispatcher droppedJobsSLA_class_1 60197
scalar FogSequentialForward.fog[46].server[0] rho 0.99999541044235
scalar FogSequentialForward.fog[46].server[0] congestionRatio 0
scalar FogSequentialForward.fog[46].server[0] totalJobs 841804
scalar FogSequentialForward.fog[46].server[0] droppedJobsQueue 3
scalar FogSequentialForward.fog[46].server[0] droppedJobsTimout 0
scalar FogSequentialForward.fog[46].server[0] droppedJobsSLA 269639
scalar FogSequentialForward.fog[46].server[0] droppedJobsTotal 269642
scalar FogSequentialForward.fog[47].dispatcher localJobs 840526
scalar FogSequentialForward.fog[47].dispatcher internalJobs 901896
scalar FogSequentialForward.fog[47].dispatcher externalJobs 2849568
scalar FogSequentialForward.fog[47].dispatcher remoteJobs 2850895
scalar FogSequentialForward.fog[47].dispatcher probeQueries 0
scalar FogSequentialForward.fog[47].dispatcher probeAnswers 0
scalar FogSequentialForward.fog[47].dispatcher droppedJobsSLA 60043
scalar FogSequentialForward.fog[47].dispatcher jobs_class_1 3751464
scalar FogSequentialForward.fog[47].dispatcher remoteJobs_class_1 2850895
scalar FogSequentialForward.fog[47].dispatcher localJobs_class_1 840526
scalar FogSequentialForward.fog[47].dispatcher droppedJobsSLA_class_1 60043
scalar FogSequentialForward.fog[47].server[0] rho 0.9999925494194
scalar FogSequentialForward.fog[47].server[0] congestionRatio 0
scalar FogSequentialForward.fog[47].server[0] totalJobs 840526
scalar FogSequentialForward.fog[47].server[0] droppedJobsQueue 4
scalar FogSequentialForward.fog[47].server[0] droppedJobsTimout 0
scalar FogSequentialForward.fog[47].server[0] droppedJobsSLA 268174
scalar FogSequentialForward.fog[47].server[0] droppedJobsTotal 268178
scalar FogSequentialForward.fog[48].dispatcher localJobs 841212
scalar FogSequentialForward.fog[48].dispatcher internalJobs 903047
scalar FogSequentialForward.fog[48].dispatcher externalJobs 2850676
scalar FogSequentialForward.fog[48].dispatcher remoteJobs 2852323
scalar FogSequentialForward.fog[48].dispatcher probeQueries 0
scalar FogSequentialForward.fog[48].dispatcher probeAnswers 0
scalar FogSequentialForward.fog[48].dispatcher droppedJobsSLA 60188
scalar FogSequentialForward.fog[48].dispatcher jobs_class_1 3753723
scalar FogSequentialForward.fog[48].dispatcher remoteJobs_class_1 2852323
scalar FogSequentialForward.fog[48].dispatcher localJobs_class_1 841212
scalar FogSequentialForward.fog[48].dispatcher droppedJobsSLA_class_1 60188
scalar FogSequentialForward.fog[48].server[0] rho 0.99999630451202
scalar FogSequentialForward.fog[48].server[0] congestionRatio 0
scalar FogSequentialForward.fog[48].server[0] totalJobs 841212
scalar FogSequentialForward.fog[48].server[0] droppedJobsQueue 1
scalar FogSequentialForward.fog[48].server[0] droppedJobsTimout 0
scalar FogSequentialForward.fog[48].server[0] droppedJobsSLA 268890
scalar FogSequentialForward.fog[48].server[0] droppedJobsTotal 268891
scalar FogSequentialForward.fog[49].dispatcher localJobs 841274
scalar FogSequentialForward.fog[49].dispatcher internalJobs 901401
scalar FogSequentialForward.fog[49].dispatcher externalJobs 2850584
scalar FogSequentialForward.fog[49].dispatcher remoteJobs 2849720
scalar FogSequentialForward.fog[49].dispatcher probeQueries 0
scalar FogSequentialForward.fog[49].dispatcher probeAnswers 0
scalar FogSequentialForward.fog[49].dispatcher droppedJobsSLA 60991
scalar FogSequentialForward.fog[49].dispatcher jobs_class_1 3751985
scalar FogSequentialForward.fog[49].dispatcher remoteJobs_class_1 2849720
scalar FogSequentialForward.fog[49].dispatcher localJobs_class_1 841274
scalar FogSequentialForward.fog[49].dispatcher droppedJobsSLA_class_1 60991
scalar FogSequentialForward.fog[49].server[0] rho 0.99998950958252
scalar FogSequentialForward.fog[49].server[0] congestionRatio 0
scalar FogSequentialForward.fog[49].server[0] totalJobs 841274
scalar FogSequentialForward.fog[49].server[0] droppedJobsQueue 2
scalar FogSequentialForward.fog[49].server[0] droppedJobsTimout 0
scalar FogSequentialForward.fog[49].server[0] droppedJobsSLA 269350
scalar FogSequentialForward.fog[49].server[0] droppedJobsTotal 269352
scalar FogSequentialForward.fog[50].dispatcher localJobs 841715
scalar FogSequentialForward.fog[50].dispatcher internalJobs 902205
scalar FogSequentialForward.fog[50].dispatcher externalJobs 2854424
scalar FogSequentialForward.fog[50].dispatcher remoteJobs 2854654
scalar FogSequentialForward.fog[50].dispatcher probeQueries 0
scalar FogSequentialForward.fog[50].dispatcher probeAnswers 0
scalar FogSequentialForward.fog[50].dispatcher droppedJobsSLA 60260
scalar FogSequentialForward.fog[50].dispatcher jobs_class_1 3756629
scalar FogSequentialForward.fog[50].dispatcher remoteJobs_class_1 2854654
scalar FogSequentialForward.fog[50].dispatcher localJobs_class_1 841715
scalar FogSequentialForward.fog[50].dispatcher droppedJobsSLA_class_1 60260
scalar FogSequentialForward.fog[50].server[0] rho 0.9999932050705
scalar FogSequentialForward.fog[50].server[0] congestionRatio 0
scalar FogSequentialForward.fog[50].server[0] totalJobs 841715
scalar FogSequentialForward.fog[50].server[0] droppedJobsQueue 3
scalar FogSequentialForward.fog[50].server[0] droppedJobsTimout 0
scalar FogSequentialForward.fog[50].server[0] droppedJobsSLA 269308
scalar FogSequentialForward.fog[50].server[0] droppedJobsTotal 269311
scalar FogSequentialForward.fog[51].dispatcher localJobs 841957
scalar FogSequentialForward.fog[51].dispatcher internalJobs 902026
scalar FogSequentialForward.fog[51].dispatcher externalJobs 2851320
scalar FogSequentialForward.fog[51].dispatcher remoteJobs 2850792
scalar FogSequentialForward.fog[51].dispatcher probeQueries 0
scalar FogSequentialForward.fog[51].dispatcher probeAnswers 0
scalar FogSequentialForward.fog[51].dispatcher droppedJobsSLA 60597
scalar FogSequentialForward.fog[51].dispatcher jobs_class_1 3753346
scalar FogSequentialForward.fog[51].dispatcher remoteJobs_class_1 2850792
scalar FogSequentialForward.fog[51].dispatcher localJobs_class_1 841957
scalar FogSequentialForward.fog[51].dispatcher droppedJobsSLA_class_1 60597
scalar FogSequentialForward.fog[51].server[0] rho 0.99999517202377
scalar FogSequentialForward.fog[51].server[0] congestionRatio 0
scalar FogSequentialForward.fog[51].server[0] totalJobs 841957
scalar FogSequentialForward.fog[51].server[0] droppedJobsQueue 7
scalar FogSequentialForward.fog[51].server[0] droppedJobsTimout 0
scalar FogSequentialForward.fog[51].server[0] droppedJobsSLA 269958
scalar FogSequentialForward.fog[51].server[0] droppedJobsTotal 269965
scalar FogSequentialForward.fog[52].dispatcher localJobs 841438
scalar FogSequentialForward.fog[52].dispatcher internalJobs 902152
scalar FogSequentialForward.fog[52].dispatcher externalJobs 2852424
scalar FogSequentialForward.fog[52].dispatcher remoteJobs 2852802
scalar FogSequentialForward.fog[52].dispatcher probeQueries 0
scalar FogSequentialForward.fog[52].dispatcher probeAnswers 0
scalar FogSequentialForward.fog[52].dispatcher droppedJobsSLA 60336
scalar FogSequentialForward.fog[52].dispatcher jobs_class_1 3754576
scalar FogSequentialForward.fog[52].dispatcher remoteJobs_class_1 2852802
scalar FogSequentialForward.fog[52].dispatcher localJobs_class_1 841438
scalar FogSequentialForward.fog[52].dispatcher droppedJobsSLA_class_1 60336
scalar FogSequentialForward.fog[52].server[0] rho 0.99999463558197
scalar FogSequentialForward.fog[52].server[0] congestionRatio 0
scalar FogSequentialForward.fog[52].server[0] totalJobs 841438
scalar FogSequentialForward.fog[52].server[0] droppedJobsQueue 7
scalar FogSequentialForward.fog[52].server[0] droppedJobsTimout 0
scalar FogSequentialForward.fog[52].server[0] droppedJobsSLA 269282
scalar FogSequentialForward.fog[52].server[0] droppedJobsTotal 269289
scalar FogSequentialForward.fog[53].dispatcher localJobs 841412
scalar FogSequentialForward.fog[53].dispatcher internalJobs 901563
scalar FogSequentialForward.fog[53].dispatcher externalJobs 2849911
scalar FogSequentialForward.fog[53].dispatcher remoteJobs 2849781
scalar FogSequentialForward.fog[53].dispatcher probeQueries 0
scalar FogSequentialForward.fog[53].dispatcher probeAnswers 0
scalar FogSequentialForward.fog[53].dispatcher droppedJobsSLA 60281
scalar FogSequentialForward.fog[53].dispatcher jobs_class_1 3751474
scalar FogSequentialForward.fog[53].dispatcher remoteJobs_class_1 2849781
scalar FogSequentialForward.fog[53].dispatcher localJobs_class_1 841412
scalar FogSequentialForward.fog[53].dispatcher droppedJobsSLA_class_1 60281
scalar FogSequentialForward.fog[53].server[0] rho 0.99999332427979
scalar FogSequentialForward.fog[53].server[0] congestionRatio 0
scalar FogSequentialForward.fog[53].server[0] totalJobs 841412
scalar FogSequentialForward.fog[53].server[0] droppedJobsQueue 3
scalar FogSequentialForward.fog[53].server[0] droppedJobsTimout 0
scalar FogSequentialForward.fog[53].server[0] droppedJobsSLA 269190
scalar FogSequentialForward.fog[53].server[0] droppedJobsTotal 269193
scalar FogSequentialForward.fog[54].dispatcher localJobs 841075
scalar FogSequentialForward.fog[54].dispatcher internalJobs 901583
scalar FogSequentialForward.fog[54].dispatcher externalJobs 2855994
scalar FogSequentialForward.fog[54].dispatcher remoteJobs 2856233
scalar FogSequentialForward.fog[54].dispatcher probeQueries 0
scalar FogSequentialForward.fog[54].dispatcher probeAnswers 0
scalar FogSequentialForward.fog[54].dispatcher droppedJobsSLA 60269
scalar FogSequentialForward.fog[54].dispatcher jobs_class_1 3757577
scalar FogSequentialForward.fog[54].dispatcher remoteJobs_class_1 2856233
scalar FogSequentialForward.fog[54].dispatcher localJobs_class_1 841075
scalar FogSequentialForward.fog[54].dispatcher droppedJobsSLA_class_1 60269
scalar FogSequentialForward.fog[54].server[0] rho 0.99999403953552
scalar FogSequentialForward.fog[54].server[0] congestionRatio 0
scalar FogSequentialForward.fog[54].server[0] totalJobs 841075
scalar FogSequentialForward.fog[54].server[0] droppedJobsQueue 6
scalar FogSequentialForward.fog[54].server[0] droppedJobsTimout 0
scalar FogSequentialForward.fog[54].server[0] droppedJobsSLA 268878
scalar FogSequentialForward.fog[54].server[0] droppedJobsTotal 268884
scalar FogSequentialForward.fog[55].dispatcher localJobs 840424
scalar FogSequentialForward.fog[55].dispatcher internalJobs 900443
scalar FogSequentialForward.fog[55].dispatcher externalJobs 2851930
scalar FogSequentialForward.fog[55].dispatcher remoteJobs 2851650
scalar FogSequentialForward.fog[55].dispatcher probeQueries 0
scalar FogSequentialForward.fog[55].dispatcher probeAnswers 0
scalar FogSequentialForward.fog[55].dispatcher droppedJobsSLA 60299
scalar FogSequentialForward.fog[55].dispatcher jobs_class_1 3752373
scalar FogSequentialForward.fog[55].dispatcher remoteJobs_class_1 2851650
scalar FogSequentialForward.fog[55].dispatcher localJobs_class_1 840424
scalar FogSequentialForward.fog[55].dispatcher droppedJobsSLA_class_1 60299
scalar FogSequentialForward.fog[55].server[0] rho 0.99999415874481
scalar FogSequentialForward.fog[55].server[0] congestionRatio 0
scalar FogSequentialForward.fog[55].server[0] totalJobs 840424
scalar FogSequentialForward.fog[55].server[0] droppedJobsQueue 4
scalar FogSequentialForward.fog[55].server[0] droppedJobsTimout 0
scalar FogSequentialForward.fog[55].server[0] droppedJobsSLA 268534
scalar FogSequentialForward.fog[55].server[0] droppedJobsTotal 268538
scalar FogSequentialForward.fog[56].dispatcher localJobs 841902
scalar FogSequentialForward.fog[56].dispatcher internalJobs 901304
scalar FogSequentialForward.fog[56].dispatcher externalJobs 2853929
scalar FogSequentialForward.fog[56].dispatcher remoteJobs 2852904
scalar FogSequentialForward.fog[56].dispatcher probeQueries 0
scalar FogSequentialForward.fog[56].dispatcher probeAnswers 0
scalar FogSequentialForward.fog[56].dispatcher droppedJobsSLA 60427
scalar FogSequentialForward.fog[56].dispatcher jobs_class_1 3755233
scalar FogSequentialForward.fog[56].dispatcher remoteJobs_class_1 2852904
scalar FogSequentialForward.fog[56].dispatcher localJobs_class_1 841902
scalar FogSequentialForward.fog[56].dispatcher droppedJobsSLA_class_1 60427
scalar FogSequentialForward.fog[56].server[0] rho 0.99999558925629
scalar FogSequentialForward.fog[56].server[0] congestionRatio 0
scalar FogSequentialForward.fog[56].server[0] totalJobs 841902
scalar FogSequentialForward.fog[56].server[0] droppedJobsQueue 8
scalar FogSequentialForward.fog[56].server[0] droppedJobsTimout 0
scalar FogSequentialForward.fog[56].server[0] droppedJobsSLA 269973
scalar FogSequentialForward.fog[56].server[0] droppedJobsTotal 269981
scalar FogSequentialForward.fog[57].dispatcher localJobs 841676
scalar FogSequentialForward.fog[57].dispatcher internalJobs 901615
scalar FogSequentialForward.fog[57].dispatcher externalJobs 2850094
scalar FogSequentialForward.fog[57].dispatcher remoteJobs 2849744
scalar FogSequentialForward.fog[57].dispatcher probeQueries 0
scalar FogSequentialForward.fog[57].dispatcher probeAnswers 0
scalar FogSequentialForward.fog[57].dispatcher droppedJobsSLA 60289
scalar FogSequentialForward.fog[57].dispatcher jobs_class_1 3751709
scalar FogSequentialForward.fog[57].dispatcher remoteJobs_class_1 2849744
scalar FogSequentialForward.fog[57].dispatcher localJobs_class_1 841676
scalar FogSequentialForward.fog[57].dispatcher droppedJobsSLA_class_1 60289
scalar FogSequentialForward.fog[57].server[0] rho 0.99999284744263
scalar FogSequentialForward.fog[57].server[0] congestionRatio 0
scalar FogSequentialForward.fog[57].server[0] totalJobs 841676
scalar FogSequentialForward.fog[57].server[0] droppedJobsQueue 4
scalar FogSequentialForward.fog[57].server[0] droppedJobsTimout 0
scalar FogSequentialForward.fog[57].server[0] droppedJobsSLA 269442
scalar FogSequentialForward.fog[57].server[0] droppedJobsTotal 269446
scalar FogSequentialForward.fog[58].dispatcher localJobs 841367
scalar FogSequentialForward.fog[58].dispatcher internalJobs 902528
scalar FogSequentialForward.fog[58].dispatcher externalJobs 2853431
scalar FogSequentialForward.fog[58].dispatcher remoteJobs 2854276
scalar FogSequentialForward.fog[58].dispatcher probeQueries 0
scalar FogSequentialForward.fog[58].dispatcher probeAnswers 0
scalar FogSequentialForward.fog[58].dispatcher droppedJobsSLA 60316
scalar FogSequentialForward.fog[58].dispatcher jobs_class_1 3755959
scalar FogSequentialForward.fog[58].dispatcher remoteJobs_class_1 2854276
scalar FogSequentialForward.fog[58].dispatcher localJobs_class_1 841367
scalar FogSequentialForward.fog[58].dispatcher droppedJobsSLA_class_1 60316
scalar FogSequentialForward.fog[58].server[0] rho 0.99999076128006
scalar FogSequentialForward.fog[58].server[0] congestionRatio 0
scalar FogSequentialForward.fog[58].server[0] totalJobs 841367
scalar FogSequentialForward.fog[58].server[0] droppedJobsQueue 4
scalar FogSequentialForward.fog[58].server[0] droppedJobsTimout 0
scalar FogSequentialForward.fog[58].server[0] droppedJobsSLA 269326
scalar FogSequentialForward.fog[58].server[0] droppedJobsTotal 269330
scalar FogSequentialForward.fog[59].dispatcher localJobs 841923
scalar FogSequentialForward.fog[59].dispatcher internalJobs 901339
scalar FogSequentialForward.fog[59].dispatcher externalJobs 2852387
scalar FogSequentialForward.fog[59].dispatcher remoteJobs 2851078
scalar FogSequentialForward.fog[59].dispatcher probeQueries 0
scalar FogSequentialForward.fog[59].dispatcher probeAnswers 0
scalar FogSequentialForward.fog[59].dispatcher droppedJobsSLA 60725
scalar FogSequentialForward.fog[59].dispatcher jobs_class_1 3753726
scalar FogSequentialForward.fog[59].dispatcher remoteJobs_class_1 2851078
scalar FogSequentialForward.fog[59].dispatcher localJobs_class_1 841923
scalar FogSequentialForward.fog[59].dispatcher droppedJobsSLA_class_1 60725
scalar FogSequentialForward.fog[59].server[0] rho 0.99999696016312
scalar FogSequentialForward.fog[59].server[0] congestionRatio 0
scalar FogSequentialForward.fog[59].server[0] totalJobs 841923
scalar FogSequentialForward.fog[59].server[0] droppedJobsQueue 4
scalar FogSequentialForward.fog[59].server[0] droppedJobsTimout 0
scalar FogSequentialForward.fog[59].server[0] droppedJobsSLA 269764
scalar FogSequentialForward.fog[59].server[0] droppedJobsTotal 269768
scalar FogSequentialForward.fog[60].dispatcher localJobs 841556
scalar FogSequentialForward.fog[60].dispatcher internalJobs 902145
scalar FogSequentialForward.fog[60].dispatcher externalJobs 2857751
scalar FogSequentialForward.fog[60].dispatcher remoteJobs 2857688
scalar FogSequentialForward.fog[60].dispatcher probeQueries 0
scalar FogSequentialForward.fog[60].dispatcher probeAnswers 0
scalar FogSequentialForward.fog[60].dispatcher droppedJobsSLA 60652
scalar FogSequentialForward.fog[60].dispatcher jobs_class_1 3759896
scalar FogSequentialForward.fog[60].dispatcher remoteJobs_class_1 2857688
scalar FogSequentialForward.fog[60].dispatcher localJobs_class_1 841556
scalar FogSequentialForward.fog[60].dispatcher droppedJobsSLA_class_1 60652
scalar FogSequentialForward.fog[60].server[0] rho 0.9999948143959
scalar FogSequentialForward.fog[60].server[0] congestionRatio 0
scalar FogSequentialForward.fog[60].server[0] totalJobs 841556
scalar FogSequentialForward.fog[60].server[0] droppedJobsQueue 2
scalar FogSequentialForward.fog[60].server[0] droppedJobsTimout 0
scalar FogSequentialForward.fog[60].server[0] droppedJobsSLA 269727
scalar FogSequentialForward.fog[60].server[0] droppedJobsTotal 269729
scalar FogSequentialForward.fog[61].dispatcher localJobs 841447
scalar FogSequentialForward.fog[61].dispatcher internalJobs 902266
scalar FogSequentialForward.fog[61].dispatcher externalJobs 2850611
scalar FogSequentialForward.fog[61].dispatcher remoteJobs 2851362
scalar FogSequentialForward.fog[61].dispatcher probeQueries 0
scalar FogSequentialForward.fog[61].dispatcher probeAnswers 0
scalar FogSequentialForward.fog[61].dispatcher droppedJobsSLA 60068
scalar FogSequentialForward.fog[61].dispatcher jobs_class_1 3752877
scalar FogSequentialForward.fog[61].dispatcher remoteJobs_class_1 2851362
scalar FogSequentialForward.fog[61].dispatcher localJobs_class_1 841447
scalar FogSequentialForward.fog[61].dispatcher droppedJobsSLA_class_1 60068
scalar FogSequentialForward.fog[61].server[0] rho 0.99999177455902
scalar FogSequentialForward.fog[61].server[0] congestionRatio 0
scalar FogSequentialForward.fog[61].server[0] totalJobs 841447
scalar FogSequentialForward.fog[61].server[0] droppedJobsQueue 6
scalar FogSequentialForward.fog[61].server[0] droppedJobsTimout 0
scalar FogSequentialForward.fog[61].server[0] droppedJobsSLA 269391
scalar FogSequentialForward.fog[61].server[0] droppedJobsTotal 269397
scalar FogSequentialForward.fog[62].dispatcher localJobs 842116
scalar FogSequentialForward.fog[62].dispatcher internalJobs 902994
scalar FogSequentialForward.fog[62].dispatcher externalJobs 2852000
scalar FogSequentialForward.fog[62].dispatcher remoteJobs 2853274
scalar FogSequentialForward.fog[62].dispatcher probeQueries 0
scalar FogSequentialForward.fog[62].dispatcher probeAnswers 0
scalar FogSequentialForward.fog[62].dispatcher droppedJobsSLA 59604
scalar FogSequentialForward.fog[62].dispatcher jobs_class_1 3754994
scalar FogSequentialForward.fog[62].dispatcher remoteJobs_class_1 2853274
scalar FogSequentialForward.fog[62].dispatcher localJobs_class_1 842116
scalar FogSequentialForward.fog[62].dispatcher droppedJobsSLA_class_1 59604
scalar FogSequentialForward.fog[62].server[0] rho 0.99999284744263
scalar FogSequentialForward.fog[62].server[0] congestionRatio 0
scalar FogSequentialForward.fog[62].server[0] totalJobs 842116
scalar FogSequentialForward.fog[62].server[0] droppedJobsQueue 3
scalar FogSequentialForward.fog[62].server[0] droppedJobsTimout 0
scalar FogSequentialForward.fog[62].server[0] droppedJobsSLA 270067
scalar FogSequentialForward.fog[62].server[0] droppedJobsTotal 270070
scalar FogSequentialForward.fog[63].dispatcher localJobs 840838
scalar FogSequentialForward.fog[63].dispatcher internalJobs 900764
scalar FogSequentialForward.fog[63].dispatcher externalJobs 2853807
scalar FogSequentialForward.fog[63].dispatcher remoteJobs 2853283
scalar FogSequentialForward.fog[63].dispatcher probeQueries 0
scalar FogSequentialForward.fog[63].dispatcher probeAnswers 0
scalar FogSequentialForward.fog[63].dispatcher droppedJobsSLA 60450
scalar FogSequentialForward.fog[63].dispatcher jobs_class_1 3754571
scalar FogSequentialForward.fog[63].dispatcher remoteJobs_class_1 2853283
scalar FogSequentialForward.fog[63].dispatcher localJobs_class_1 840838
scalar FogSequentialForward.fog[63].dispatcher droppedJobsSLA_class_1 60450
scalar FogSequentialForward.fog[63].server[0] rho 0.99999356269836
scalar FogSequentialForward.fog[63].server[0] congestionRatio 0
scalar FogSequentialForward.fog[63].server[0] totalJobs 840838
scalar FogSequentialForward.fog[63].server[0] droppedJobsQueue 5
scalar FogSequentialForward.fog[63].server[0] droppedJobsTimout 0
scalar FogSequentialForward.fog[63].server[0] droppedJobsSLA 268837
scalar FogSequentialForward.fog[63].server[0] droppedJobsTotal 268842
scalar FogSequentialForward.fog[64].dispatcher localJobs 841394
scalar FogSequentialForward.fog[64].dispatcher internalJobs 901520
scalar FogSequentialForward.fog[64].dispatcher externalJobs 2853312
scalar FogSequentialForward.fog[64].dispatcher remoteJobs 2853209
scalar FogSequentialForward.fog[64].dispatcher probeQueries 0
scalar FogSequentialForward.fog[64].dispatcher probeAnswers 0
scalar FogSequentialForward.fog[64].dispatcher droppedJobsSLA 60229
scalar FogSequentialForward.fog[64].dispatcher jobs_class_1 3754832
scalar FogSequentialForward.fog[64].dispatcher remoteJobs_class_1 2853209
scalar FogSequentialForward.fog[64].dispatcher localJobs_class_1 841394
scalar FogSequentialForward.fog[64].dispatcher droppedJobsSLA_class_1 60229
scalar FogSequentialForward.fog[64].server[0] rho 0.999995470047
scalar FogSequentialForward.fog[64].server[0] congestionRatio 0
scalar FogSequentialForward.fog[64].server[0] totalJobs 841394
scalar FogSequentialForward.fog[64].server[0] droppedJobsQueue 4
scalar FogSequentialForward.fog[64].server[0] droppedJobsTimout 0
scalar FogSequentialForward.fog[64].server[0] droppedJobsSLA 269260
scalar FogSequentialForward.fog[64].server[0] droppedJobsTotal 269264
scalar FogSequentialForward.fog[65].dispatcher localJobs 841315
scalar FogSequentialForward.fog[65].dispatcher internalJobs 902047
scalar FogSequentialForward.fog[65].dispatcher externalJobs 2851856
scalar FogSequentialForward.fog[65].dispatcher remoteJobs 2852229
[...]
scalar FogSequentialForward.fog[84].dispatcher jobs_class_1 3755639
scalar FogSequentialForward.fog[84].dispatcher remoteJobs_class_1 2853578
scalar FogSequentialForward.fog[84].dispatcher localJobs_class_1 842331
scalar FogSequentialForward.fog[84].dispatcher droppedJobsSLA_class_1 59730
scalar FogSequentialForward.fog[84].server[0] rho 0.99999535083771
scalar FogSequentialForward.fog[84].server[0] congestionRatio 0
scalar FogSequentialForward.fog[84].server[0] totalJobs 842331
scalar FogSequentialForward.fog[84].server[0] droppedJobsQueue 4
scalar FogSequentialForward.fog[84].server[0] droppedJobsTimout 0
scalar FogSequentialForward.fog[84].server[0] droppedJobsSLA 269751
scalar FogSequentialForward.fog[84].server[0] droppedJobsTotal 269755
scalar FogSequentialForward.fog[85].dispatcher localJobs 841456
scalar FogSequentialForward.fog[85].dispatcher internalJobs 902110
scalar FogSequentialForward.fog[85].dispatcher externalJobs 2854470
scalar FogSequentialForward.fog[85].dispatcher remoteJobs 2854839
scalar FogSequentialForward.fog[85].dispatcher probeQueries 0
scalar FogSequentialForward.fog[85].dispatcher probeAnswers 0
scalar FogSequentialForward.fog[85].dispatcher droppedJobsSLA 60285
scalar FogSequentialForward.fog[85].dispatcher jobs_class_1 3756580
scalar FogSequentialForward.fog[85].dispatcher remoteJobs_class_1 2854839
scalar FogSequentialForward.fog[85].dispatcher localJobs_class_1 841456
scalar FogSequentialForward.fog[85].dispatcher droppedJobsSLA_class_1 60285
scalar FogSequentialForward.fog[85].server[0] rho 0.99999636411667
scalar FogSequentialForward.fog[85].server[0] congestionRatio 0
scalar FogSequentialForward.fog[85].server[0] totalJobs 841456
scalar FogSequentialForward.fog[85].server[0] droppedJobsQueue 5
scalar FogSequentialForward.fog[85].server[0] droppedJobsTimout 0
scalar FogSequentialForward.fog[85].server[0] droppedJobsSLA 268947
scalar FogSequentialForward.fog[85].server[0] droppedJobsTotal 268952
scalar FogSequentialForward.fog[86].dispatcher localJobs 841908
scalar FogSequentialForward.fog[86].dispatcher internalJobs 902622
scalar FogSequentialForward.fog[86].dispatcher externalJobs 2852408
scalar FogSequentialForward.fog[86].dispatcher remoteJobs 2852629
scalar FogSequentialForward.fog[86].dispatcher probeQueries 0
scalar FogSequentialForward.fog[86].dispatcher probeAnswers 0
scalar FogSequentialForward.fog[86].dispatcher droppedJobsSLA 60493
scalar FogSequentialForward.fog[86].dispatcher jobs_class_1 3755030
scalar FogSequentialForward.fog[86].dispatcher remoteJobs_class_1 2852629
scalar FogSequentialForward.fog[86].dispatcher localJobs_class_1 841908
scalar FogSequentialForward.fog[86].dispatcher droppedJobsSLA_class_1 60493
scalar FogSequentialForward.fog[86].server[0] rho 0.99999541044235
scalar FogSequentialForward.fog[86].server[0] congestionRatio 0
scalar FogSequentialForward.fog[86].server[0] totalJobs 841908
scalar FogSequentialForward.fog[86].server[0] droppedJobsQueue 5
scalar FogSequentialForward.fog[86].server[0] droppedJobsTimout 0
scalar FogSequentialForward.fog[86].server[0] droppedJobsSLA 270143
scalar FogSequentialForward.fog[86].server[0] droppedJobsTotal 270148
scalar FogSequentialForward.fog[87].dispatcher localJobs 841557
scalar FogSequentialForward.fog[87].dispatcher internalJobs 901253
scalar FogSequentialForward.fog[87].dispatcher externalJobs 2850977
scalar FogSequentialForward.fog[87].dispatcher remoteJobs 2850721
scalar FogSequentialForward.fog[87].dispatcher probeQueries 0
scalar FogSequentialForward.fog[87].dispatcher probeAnswers 0
scalar FogSequentialForward.fog[87].dispatcher droppedJobsSLA 59952
scalar FogSequentialForward.fog[87].dispatcher jobs_class_1 3752230
scalar FogSequentialForward.fog[87].dispatcher remoteJobs_class_1 2850721
scalar FogSequentialForward.fog[87].dispatcher localJobs_class_1 841557
scalar FogSequentialForward.fog[87].dispatcher droppedJobsSLA_class_1 59952
scalar FogSequentialForward.fog[87].server[0] rho 0.99998956918716
scalar FogSequentialForward.fog[87].server[0] congestionRatio 0
scalar FogSequentialForward.fog[87].server[0] totalJobs 841557
scalar FogSequentialForward.fog[87].server[0] droppedJobsQueue 4
scalar FogSequentialForward.fog[87].server[0] droppedJobsTimout 0
scalar FogSequentialForward.fog[87].server[0] droppedJobsSLA 269045
scalar FogSequentialForward.fog[87].server[0] droppedJobsTotal 269049
scalar FogSequentialForward.fog[88].dispatcher localJobs 841081
scalar FogSequentialForward.fog[88].dispatcher internalJobs 902163
scalar FogSequentialForward.fog[88].dispatcher externalJobs 2851090
scalar FogSequentialForward.fog[88].dispatcher remoteJobs 2851658
scalar FogSequentialForward.fog[88].dispatcher probeQueries 0
scalar FogSequentialForward.fog[88].dispatcher probeAnswers 0
scalar FogSequentialForward.fog[88].dispatcher droppedJobsSLA 60514
scalar FogSequentialForward.fog[88].dispatcher jobs_class_1 3753253
scalar FogSequentialForward.fog[88].dispatcher remoteJobs_class_1 2851658
scalar FogSequentialForward.fog[88].dispatcher localJobs_class_1 841081
scalar FogSequentialForward.fog[88].dispatcher droppedJobsSLA_class_1 60514
scalar FogSequentialForward.fog[88].server[0] rho 0.99999660253525
scalar FogSequentialForward.fog[88].server[0] congestionRatio 0
scalar FogSequentialForward.fog[88].server[0] totalJobs 841081
scalar FogSequentialForward.fog[88].server[0] droppedJobsQueue 3
scalar FogSequentialForward.fog[88].server[0] droppedJobsTimout 0
scalar FogSequentialForward.fog[88].server[0] droppedJobsSLA 269073
scalar FogSequentialForward.fog[88].server[0] droppedJobsTotal 269076
scalar FogSequentialForward.fog[89].dispatcher localJobs 842462
scalar FogSequentialForward.fog[89].dispatcher internalJobs 900459
scalar FogSequentialForward.fog[89].dispatcher externalJobs 2849867
scalar FogSequentialForward.fog[89].dispatcher remoteJobs 2847779
scalar FogSequentialForward.fog[89].dispatcher probeQueries 0
scalar FogSequentialForward.fog[89].dispatcher probeAnswers 0
scalar FogSequentialForward.fog[89].dispatcher droppedJobsSLA 60085
scalar FogSequentialForward.fog[89].dispatcher jobs_class_1 3750326
scalar FogSequentialForward.fog[89].dispatcher remoteJobs_class_1 2847779
scalar FogSequentialForward.fog[89].dispatcher localJobs_class_1 842462
scalar FogSequentialForward.fog[89].dispatcher droppedJobsSLA_class_1 60085
scalar FogSequentialForward.fog[89].server[0] rho 0.99999380111694
scalar FogSequentialForward.fog[89].server[0] congestionRatio 0
scalar FogSequentialForward.fog[89].server[0] totalJobs 842462
scalar FogSequentialForward.fog[89].server[0] droppedJobsQueue 9
scalar FogSequentialForward.fog[89].server[0] droppedJobsTimout 0
scalar FogSequentialForward.fog[89].server[0] droppedJobsSLA 269854
scalar FogSequentialForward.fog[89].server[0] droppedJobsTotal 269863
scalar FogSequentialForward.fog[90].dispatcher localJobs 841672
scalar FogSequentialForward.fog[90].dispatcher internalJobs 903111
scalar FogSequentialForward.fog[90].dispatcher externalJobs 2853119
scalar FogSequentialForward.fog[90].dispatcher remoteJobs 2854545
scalar FogSequentialForward.fog[90].dispatcher probeQueries 0
scalar FogSequentialForward.fog[90].dispatcher probeAnswers 0
scalar FogSequentialForward.fog[90].dispatcher droppedJobsSLA 60013
scalar FogSequentialForward.fog[90].dispatcher jobs_class_1 3756230
scalar FogSequentialForward.fog[90].dispatcher remoteJobs_class_1 2854545
scalar FogSequentialForward.fog[90].dispatcher localJobs_class_1 841672
scalar FogSequentialForward.fog[90].dispatcher droppedJobsSLA_class_1 60013
scalar FogSequentialForward.fog[90].server[0] rho 0.99999457597733
scalar FogSequentialForward.fog[90].server[0] congestionRatio 0
scalar FogSequentialForward.fog[90].server[0] totalJobs 841672
scalar FogSequentialForward.fog[90].server[0] droppedJobsQueue 6
scalar FogSequentialForward.fog[90].server[0] droppedJobsTimout 0
scalar FogSequentialForward.fog[90].server[0] droppedJobsSLA 269611
scalar FogSequentialForward.fog[90].server[0] droppedJobsTotal 269617
scalar FogSequentialForward.fog[91].dispatcher localJobs 841674
scalar FogSequentialForward.fog[91].dispatcher internalJobs 900266
scalar FogSequentialForward.fog[91].dispatcher externalJobs 2849668
scalar FogSequentialForward.fog[91].dispatcher remoteJobs 2847942
scalar FogSequentialForward.fog[91].dispatcher probeQueries 0
scalar FogSequentialForward.fog[91].dispatcher probeAnswers 0
scalar FogSequentialForward.fog[91].dispatcher droppedJobsSLA 60318
scalar FogSequentialForward.fog[91].dispatcher jobs_class_1 3749934
scalar FogSequentialForward.fog[91].dispatcher remoteJobs_class_1 2847942
scalar FogSequentialForward.fog[91].dispatcher localJobs_class_1 841674
scalar FogSequentialForward.fog[91].dispatcher droppedJobsSLA_class_1 60318
scalar FogSequentialForward.fog[91].server[0] rho 0.99999499320984
scalar FogSequentialForward.fog[91].server[0] congestionRatio 0
scalar FogSequentialForward.fog[91].server[0] totalJobs 841674
scalar FogSequentialForward.fog[91].server[0] droppedJobsQueue 4
scalar FogSequentialForward.fog[91].server[0] droppedJobsTimout 0
scalar FogSequentialForward.fog[91].server[0] droppedJobsSLA 269011
scalar FogSequentialForward.fog[91].server[0] droppedJobsTotal 269015
scalar FogSequentialForward.fog[92].dispatcher localJobs 841423
scalar FogSequentialForward.fog[92].dispatcher internalJobs 901417
scalar FogSequentialForward.fog[92].dispatcher externalJobs 2852532
scalar FogSequentialForward.fog[92].dispatcher remoteJobs 2852124
scalar FogSequentialForward.fog[92].dispatcher probeQueries 0
scalar FogSequentialForward.fog[92].dispatcher probeAnswers 0
scalar FogSequentialForward.fog[92].dispatcher droppedJobsSLA 60402
scalar FogSequentialForward.fog[92].dispatcher jobs_class_1 3753949
scalar FogSequentialForward.fog[92].dispatcher remoteJobs_class_1 2852124
scalar FogSequentialForward.fog[92].dispatcher localJobs_class_1 841423
scalar FogSequentialForward.fog[92].dispatcher droppedJobsSLA_class_1 60402
scalar FogSequentialForward.fog[92].server[0] rho 0.99999529123306
scalar FogSequentialForward.fog[92].server[0] congestionRatio 0
scalar FogSequentialForward.fog[92].server[0] totalJobs 841423
scalar FogSequentialForward.fog[92].server[0] droppedJobsQueue 6
scalar FogSequentialForward.fog[92].server[0] droppedJobsTimout 0
scalar FogSequentialForward.fog[92].server[0] droppedJobsSLA 268662
scalar FogSequentialForward.fog[92].server[0] droppedJobsTotal 268668
scalar FogSequentialForward.fog[93].dispatcher localJobs 841319
scalar FogSequentialForward.fog[93].dispatcher internalJobs 902287
scalar FogSequentialForward.fog[93].dispatcher externalJobs 2850163
scalar FogSequentialForward.fog[93].dispatcher remoteJobs 2850803
scalar FogSequentialForward.fog[93].dispatcher probeQueries 0
scalar FogSequentialForward.fog[93].dispatcher probeAnswers 0
scalar FogSequentialForward.fog[93].dispatcher droppedJobsSLA 60328
scalar FogSequentialForward.fog[93].dispatcher jobs_class_1 3752450
scalar FogSequentialForward.fog[93].dispatcher remoteJobs_class_1 2850803
scalar FogSequentialForward.fog[93].dispatcher localJobs_class_1 841319
scalar FogSequentialForward.fog[93].dispatcher droppedJobsSLA_class_1 60328
scalar FogSequentialForward.fog[93].server[0] rho 0.99999159574509
scalar FogSequentialForward.fog[93].server[0] congestionRatio 0
scalar FogSequentialForward.fog[93].server[0] totalJobs 841319
scalar FogSequentialForward.fog[93].server[0] droppedJobsQueue 6
scalar FogSequentialForward.fog[93].server[0] droppedJobsTimout 0
scalar FogSequentialForward.fog[93].server[0] droppedJobsSLA 269349
scalar FogSequentialForward.fog[93].server[0] droppedJobsTotal 269355
scalar FogSequentialForward.fog[94].dispatcher localJobs 841530
scalar FogSequentialForward.fog[94].dispatcher internalJobs 901998
scalar FogSequentialForward.fog[94].dispatcher externalJobs 2854630
scalar FogSequentialForward.fog[94].dispatcher remoteJobs 2854766
scalar FogSequentialForward.fog[94].dispatcher probeQueries 0
scalar FogSequentialForward.fog[94].dispatcher probeAnswers 0
scalar FogSequentialForward.fog[94].dispatcher droppedJobsSLA 60332
scalar FogSequentialForward.fog[94].dispatcher jobs_class_1 3756628
scalar FogSequentialForward.fog[94].dispatcher remoteJobs_class_1 2854766
scalar FogSequentialForward.fog[94].dispatcher localJobs_class_1 841530
scalar FogSequentialForward.fog[94].dispatcher droppedJobsSLA_class_1 60332
scalar FogSequentialForward.fog[94].server[0] rho 0.99999493360519
scalar FogSequentialForward.fog[94].server[0] congestionRatio 0
scalar FogSequentialForward.fog[94].server[0] totalJobs 841530
scalar FogSequentialForward.fog[94].server[0] droppedJobsQueue 5
scalar FogSequentialForward.fog[94].server[0] droppedJobsTimout 0
scalar FogSequentialForward.fog[94].server[0] droppedJobsSLA 269199
scalar FogSequentialForward.fog[94].server[0] droppedJobsTotal 269204
scalar FogSequentialForward.fog[95].dispatcher localJobs 840968
scalar FogSequentialForward.fog[95].dispatcher internalJobs 900341
scalar FogSequentialForward.fog[95].dispatcher externalJobs 2851831
scalar FogSequentialForward.fog[95].dispatcher remoteJobs 2851156
scalar FogSequentialForward.fog[95].dispatcher probeQueries 0
scalar FogSequentialForward.fog[95].dispatcher probeAnswers 0
scalar FogSequentialForward.fog[95].dispatcher droppedJobsSLA 60048
scalar FogSequentialForward.fog[95].dispatcher jobs_class_1 3752172
scalar FogSequentialForward.fog[95].dispatcher remoteJobs_class_1 2851156
scalar FogSequentialForward.fog[95].dispatcher localJobs_class_1 840968
scalar FogSequentialForward.fog[95].dispatcher droppedJobsSLA_class_1 60048
scalar FogSequentialForward.fog[95].server[0] rho 0.9999932050705
scalar FogSequentialForward.fog[95].server[0] congestionRatio 0
scalar FogSequentialForward.fog[95].server[0] totalJobs 840968
scalar FogSequentialForward.fog[95].server[0] droppedJobsQueue 4
scalar FogSequentialForward.fog[95].server[0] droppedJobsTimout 0
scalar FogSequentialForward.fog[95].server[0] droppedJobsSLA 268424
scalar FogSequentialForward.fog[95].server[0] droppedJobsTotal 268428
scalar FogSequentialForward.fog[96].dispatcher localJobs 841791
scalar FogSequentialForward.fog[96].dispatcher internalJobs 901811
scalar FogSequentialForward.fog[96].dispatcher externalJobs 2855343
scalar FogSequentialForward.fog[96].dispatcher remoteJobs 2854852
scalar FogSequentialForward.fog[96].dispatcher probeQueries 0
scalar FogSequentialForward.fog[96].dispatcher probeAnswers 0
scalar FogSequentialForward.fog[96].dispatcher droppedJobsSLA 60511
scalar FogSequentialForward.fog[96].dispatcher jobs_class_1 3757154
scalar FogSequentialForward.fog[96].dispatcher remoteJobs_class_1 2854852
scalar FogSequentialForward.fog[96].dispatcher localJobs_class_1 841791
scalar FogSequentialForward.fog[96].dispatcher droppedJobsSLA_class_1 60511
scalar FogSequentialForward.fog[96].server[0] rho 0.99999678134918
scalar FogSequentialForward.fog[96].server[0] congestionRatio 0
scalar FogSequentialForward.fog[96].server[0] totalJobs 841791
scalar FogSequentialForward.fog[96].server[0] droppedJobsQueue 6
scalar FogSequentialForward.fog[96].server[0] droppedJobsTimout 0
scalar FogSequentialForward.fog[96].server[0] droppedJobsSLA 269576
scalar FogSequentialForward.fog[96].server[0] droppedJobsTotal 269582
scalar FogSequentialForward.fog[97].dispatcher localJobs 841640
scalar FogSequentialForward.fog[97].dispatcher internalJobs 902225
scalar FogSequentialForward.fog[97].dispatcher externalJobs 2851303
scalar FogSequentialForward.fog[97].dispatcher remoteJobs 2851642
scalar FogSequentialForward.fog[97].dispatcher probeQueries 0
scalar FogSequentialForward.fog[97].dispatcher probeAnswers 0
scalar FogSequentialForward.fog[97].dispatcher droppedJobsSLA 60246
scalar FogSequentialForward.fog[97].dispatcher jobs_class_1 3753528
scalar FogSequentialForward.fog[97].dispatcher remoteJobs_class_1 2851642
scalar FogSequentialForward.fog[97].dispatcher localJobs_class_1 841640
scalar FogSequentialForward.fog[97].dispatcher droppedJobsSLA_class_1 60246
scalar FogSequentialForward.fog[97].server[0] rho 0.99999648332596
scalar FogSequentialForward.fog[97].server[0] congestionRatio 0
scalar FogSequentialForward.fog[97].server[0] totalJobs 841640
scalar FogSequentialForward.fog[97].server[0] droppedJobsQueue 2
scalar FogSequentialForward.fog[97].server[0] droppedJobsTimout 0
scalar FogSequentialForward.fog[97].server[0] droppedJobsSLA 269359
scalar FogSequentialForward.fog[97].server[0] droppedJobsTotal 269361
scalar FogSequentialForward.fog[98].dispatcher localJobs 841566
scalar FogSequentialForward.fog[98].dispatcher internalJobs 902225
scalar FogSequentialForward.fog[98].dispatcher externalJobs 2851521
scalar FogSequentialForward.fog[98].dispatcher remoteJobs 2852357
scalar FogSequentialForward.fog[98].dispatcher probeQueries 0
scalar FogSequentialForward.fog[98].dispatcher probeAnswers 0
scalar FogSequentialForward.fog[98].dispatcher droppedJobsSLA 59823
scalar FogSequentialForward.fog[98].dispatcher jobs_class_1 3753746
scalar FogSequentialForward.fog[98].dispatcher remoteJobs_class_1 2852357
scalar FogSequentialForward.fog[98].dispatcher localJobs_class_1 841566
scalar FogSequentialForward.fog[98].dispatcher droppedJobsSLA_class_1 59823
scalar FogSequentialForward.fog[98].server[0] rho 0.99999558925629
scalar FogSequentialForward.fog[98].server[0] congestionRatio 0
scalar FogSequentialForward.fog[98].server[0] totalJobs 841566
scalar FogSequentialForward.fog[98].server[0] droppedJobsQueue 4
scalar FogSequentialForward.fog[98].server[0] droppedJobsTimout 0
scalar FogSequentialForward.fog[98].server[0] droppedJobsSLA 269559
scalar FogSequentialForward.fog[98].server[0] droppedJobsTotal 269563
scalar FogSequentialForward.fog[99].dispatcher localJobs 841487
scalar FogSequentialForward.fog[99].dispatcher internalJobs 900169
scalar FogSequentialForward.fog[99].dispatcher externalJobs 2854885
scalar FogSequentialForward.fog[99].dispatcher remoteJobs 2853765
scalar FogSequentialForward.fog[99].dispatcher probeQueries 0
scalar FogSequentialForward.fog[99].dispatcher probeAnswers 0
scalar FogSequentialForward.fog[99].dispatcher droppedJobsSLA 59802
scalar FogSequentialForward.fog[99].dispatcher jobs_class_1 3755054
scalar FogSequentialForward.fog[99].dispatcher remoteJobs_class_1 2853765
scalar FogSequentialForward.fog[99].dispatcher localJobs_class_1 841487
scalar FogSequentialForward.fog[99].dispatcher droppedJobsSLA_class_1 59802
scalar FogSequentialForward.fog[99].server[0] rho 0.99999332427979
scalar FogSequentialForward.fog[99].server[0] congestionRatio 0
scalar FogSequentialForward.fog[99].server[0] totalJobs 841487
scalar FogSequentialForward.fog[99].server[0] droppedJobsQueue 2
scalar FogSequentialForward.fog[99].server[0] droppedJobsTimout 0
scalar FogSequentialForward.fog[99].server[0] droppedJobsSLA 269186
scalar FogSequentialForward.fog[99].server[0] droppedJobsTotal 269188
scalar FogSequentialForward.sink avg_responseTime_1 0.11824465197572
scalar FogSequentialForward.sink p90_responseTime_1 0.015140800959
scalar FogSequentialForward.sink med_responseTime_1 0.015140800959
scalar FogSequentialForward.sink avg_delayTime_1 0
scalar FogSequentialForward.sink p90_delayTime_1 0
scalar FogSequentialForward.sink med_delayTime_1 0
scalar FogSequentialForward.sink avg_queuingTime_1 0.077965434046948
scalar FogSequentialForward.sink p90_queuingTime_1 0
scalar FogSequentialForward.sink med_queuingTime_1 0
scalar FogSequentialForward.sink avg_serviceTime_1 0.016709985750486
scalar FogSequentialForward.sink p90_serviceTime_1 0.014638923562
scalar FogSequentialForward.sink med_serviceTime_1 0.014638923562
scalar FogSequentialForward.sink avg_balancerTime_1 0.023569232183637
scalar FogSequentialForward.sink p90_balancerTime_1 0
scalar FogSequentialForward.sink med_balancerTime_1 0
scalar FogSequentialForward.sink avg_balancerCount_1 2.4113312681627
scalar FogSequentialForward.sink p90_balancerCount_1 1
scalar FogSequentialForward.sink med_balancerCount_1 1

