version 2
run Fog-mul_10-rho_08-thr_5-2-20190714-03:55:31-96463
attr configname Fog-mul_10-rho_08-thr_5
attr datetime 20190714-03:55:31
attr experiment Fog-mul_10-rho_08-thr_5
attr inifile FogSequentialForward.ini
attr iterationvars ""
attr iterationvarsf ""
attr measurement ""
attr network FogSequentialForward
attr processid 96463
attr repetition 2
attr replication #2
attr resultdir results
attr runnumber 2
attr seedset 2
param FogSequentialForward.proctimeMul 1.0
param FogSequentialForward.rho 0.8
param FogSequentialForward.fog[*].dispatcher.thr 5
param FogSequentialForward.nSources 100
param FogSequentialForward.rho 0.9
param FogSequentialForward.proctimeMul 1.0
param FogSequentialForward.source[*].appId 1
param FogSequentialForward.source[*].realTime true
param FogSequentialForward.source[*].multiHop true
param FogSequentialForward.fog[*].nServers 1
param FogSequentialForward.fog[*].dispatcher.fanOut 1
param FogSequentialForward.fog[*].server[*].timeSlice -1s
param FogSequentialForward.fog[*].server[*].timeout -1s
param FogSequentialForward.fog[*].server[*].capacity 20
param FogSequentialForward.fog[*].server[*].fifo true
param FogSequentialForward.fog[*].server[*].maxServiceTime -1s
param FogSequentialForward.fog[*].dispatcher.thr 1

scalar FogSequentialForward.fog[0].dispatcher localJobs 14131
scalar FogSequentialForward.fog[0].dispatcher internalJobs 14242
scalar FogSequentialForward.fog[0].dispatcher externalJobs 3584482
scalar FogSequentialForward.fog[0].dispatcher remoteJobs 3584290
scalar FogSequentialForward.fog[0].dispatcher probeQueries 0
scalar FogSequentialForward.fog[0].dispatcher probeAnswers 0
scalar FogSequentialForward.fog[0].dispatcher droppedJobsSLA 303
scalar FogSequentialForward.fog[0].dispatcher jobs_class_1 3598724
scalar FogSequentialForward.fog[0].dispatcher remoteJobs_class_1 3584290
scalar FogSequentialForward.fog[0].dispatcher localJobs_class_1 14131
scalar FogSequentialForward.fog[0].dispatcher droppedJobsSLA_class_1 303
scalar FogSequentialForward.fog[0].server[0] rho 0.99995160102844
scalar FogSequentialForward.fog[0].server[0] congestionRatio 0
scalar FogSequentialForward.fog[0].server[0] totalJobs 14131
scalar FogSequentialForward.fog[0].server[0] droppedJobsQueue 689
scalar FogSequentialForward.fog[0].server[0] droppedJobsTimout 0
scalar FogSequentialForward.fog[0].server[0] droppedJobsSLA 8383
scalar FogSequentialForward.fog[0].server[0] droppedJobsTotal 9072
scalar FogSequentialForward.fog[1].dispatcher localJobs 14160
scalar FogSequentialForward.fog[1].dispatcher internalJobs 14390
scalar FogSequentialForward.fog[1].dispatcher externalJobs 3588139
scalar FogSequentialForward.fog[1].dispatcher remoteJobs 3588070
scalar FogSequentialForward.fog[1].dispatcher probeQueries 0
scalar FogSequentialForward.fog[1].dispatcher probeAnswers 0
scalar FogSequentialForward.fog[1].dispatcher droppedJobsSLA 299
scalar FogSequentialForward.fog[1].dispatcher jobs_class_1 3602529
scalar FogSequentialForward.fog[1].dispatcher remoteJobs_class_1 3588070
scalar FogSequentialForward.fog[1].dispatcher localJobs_class_1 14160
scalar FogSequentialForward.fog[1].dispatcher droppedJobsSLA_class_1 299
scalar FogSequentialForward.fog[1].server[0] rho 0.99988788366318
scalar FogSequentialForward.fog[1].server[0] congestionRatio 0
scalar FogSequentialForward.fog[1].server[0] totalJobs 14160
scalar FogSequentialForward.fog[1].server[0] droppedJobsQueue 687
scalar FogSequentialForward.fog[1].server[0] droppedJobsTimout 0
scalar FogSequentialForward.fog[1].server[0] droppedJobsSLA 8352
scalar FogSequentialForward.fog[1].server[0] droppedJobsTotal 9039
scalar FogSequentialForward.fog[2].dispatcher localJobs 14162
scalar FogSequentialForward.fog[2].dispatcher internalJobs 14493
scalar FogSequentialForward.fog[2].dispatcher externalJobs 3584368
scalar FogSequentialForward.fog[2].dispatcher remoteJobs 3584403
scalar FogSequentialForward.fog[2].dispatcher probeQueries 0
scalar FogSequentialForward.fog[2].dispatcher probeAnswers 0
scalar FogSequentialForward.fog[2].dispatcher droppedJobsSLA 296
scalar FogSequentialForward.fog[2].dispatcher jobs_class_1 3598861
scalar FogSequentialForward.fog[2].dispatcher remoteJobs_class_1 3584403
scalar FogSequentialForward.fog[2].dispatcher localJobs_class_1 14162
scalar FogSequentialForward.fog[2].dispatcher droppedJobsSLA_class_1 296
scalar FogSequentialForward.fog[2].server[0] rho 0.99994540214539
scalar FogSequentialForward.fog[2].server[0] congestionRatio 0
scalar FogSequentialForward.fog[2].server[0] totalJobs 14162
scalar FogSequentialForward.fog[2].server[0] droppedJobsQueue 692
scalar FogSequentialForward.fog[2].server[0] droppedJobsTimout 0
scalar FogSequentialForward.fog[2].server[0] droppedJobsSLA 8378
scalar FogSequentialForward.fog[2].server[0] droppedJobsTotal 9070
scalar FogSequentialForward.fog[3].dispatcher localJobs 14133
scalar FogSequentialForward.fog[3].dispatcher internalJobs 14277
scalar FogSequentialForward.fog[3].dispatcher externalJobs 3583117
scalar FogSequentialForward.fog[3].dispatcher remoteJobs 3582981
scalar FogSequentialForward.fog[3].dispatcher probeQueries 0
scalar FogSequentialForward.fog[3].dispatcher probeAnswers 0
scalar FogSequentialForward.fog[3].dispatcher droppedJobsSLA 280
scalar FogSequentialForward.fog[3].dispatcher jobs_class_1 3597394
scalar FogSequentialForward.fog[3].dispatcher remoteJobs_class_1 3582981
scalar FogSequentialForward.fog[3].dispatcher localJobs_class_1 14133
scalar FogSequentialForward.fog[3].dispatcher droppedJobsSLA_class_1 280
scalar FogSequentialForward.fog[3].server[0] rho 0.99995249509811
scalar FogSequentialForward.fog[3].server[0] congestionRatio 0
scalar FogSequentialForward.fog[3].server[0] totalJobs 14133
scalar FogSequentialForward.fog[3].server[0] droppedJobsQueue 692
scalar FogSequentialForward.fog[3].server[0] droppedJobsTimout 0
scalar FogSequentialForward.fog[3].server[0] droppedJobsSLA 8367
scalar FogSequentialForward.fog[3].server[0] droppedJobsTotal 9059
scalar FogSequentialForward.fog[4].dispatcher localJobs 14158
scalar FogSequentialForward.fog[4].dispatcher internalJobs 14376
scalar FogSequentialForward.fog[4].dispatcher externalJobs 3583511
scalar FogSequentialForward.fog[4].dispatcher remoteJobs 3583441
scalar FogSequentialForward.fog[4].dispatcher probeQueries 0
scalar FogSequentialForward.fog[4].dispatcher probeAnswers 0
scalar FogSequentialForward.fog[4].dispatcher droppedJobsSLA 288
scalar FogSequentialForward.fog[4].dispatcher jobs_class_1 3597887
scalar FogSequentialForward.fog[4].dispatcher remoteJobs_class_1 3583441
scalar FogSequentialForward.fog[4].dispatcher localJobs_class_1 14158
scalar FogSequentialForward.fog[4].dispatcher droppedJobsSLA_class_1 288
scalar FogSequentialForward.fog[4].server[0] rho 0.99994790554047
scalar FogSequentialForward.fog[4].server[0] congestionRatio 0
scalar FogSequentialForward.fog[4].server[0] totalJobs 14158
scalar FogSequentialForward.fog[4].server[0] droppedJobsQueue 691
scalar FogSequentialForward.fog[4].server[0] droppedJobsTimout 0
scalar FogSequentialForward.fog[4].server[0] droppedJobsSLA 8382
scalar FogSequentialForward.fog[4].server[0] droppedJobsTotal 9073
scalar FogSequentialForward.fog[5].dispatcher localJobs 14099
scalar FogSequentialForward.fog[5].dispatcher internalJobs 14297
scalar FogSequentialForward.fog[5].dispatcher externalJobs 3581258
scalar FogSequentialForward.fog[5].dispatcher remoteJobs 3581141
scalar FogSequentialForward.fog[5].dispatcher probeQueries 0
scalar FogSequentialForward.fog[5].dispatcher probeAnswers 0
scalar FogSequentialForward.fog[5].dispatcher droppedJobsSLA 315
scalar FogSequentialForward.fog[5].dispatcher jobs_class_1 3595555
scalar FogSequentialForward.fog[5].dispatcher remoteJobs_class_1 3581141
scalar FogSequentialForward.fog[5].dispatcher localJobs_class_1 14099
scalar FogSequentialForward.fog[5].dispatcher droppedJobsSLA_class_1 315
scalar FogSequentialForward.fog[5].server[0] rho 0.99994486570358
scalar FogSequentialForward.fog[5].server[0] congestionRatio 0
scalar FogSequentialForward.fog[5].server[0] totalJobs 14099
scalar FogSequentialForward.fog[5].server[0] droppedJobsQueue 689
scalar FogSequentialForward.fog[5].server[0] droppedJobsTimout 0
scalar FogSequentialForward.fog[5].server[0] droppedJobsSLA 8339
scalar FogSequentialForward.fog[5].server[0] droppedJobsTotal 9028
scalar FogSequentialForward.fog[6].dispatcher localJobs 14146
scalar FogSequentialForward.fog[6].dispatcher internalJobs 14287
scalar FogSequentialForward.fog[6].dispatcher externalJobs 3582049
scalar FogSequentialForward.fog[6].dispatcher remoteJobs 3581900
scalar FogSequentialForward.fog[6].dispatcher probeQueries 0
scalar FogSequentialForward.fog[6].dispatcher probeAnswers 0
scalar FogSequentialForward.fog[6].dispatcher droppedJobsSLA 290
scalar FogSequentialForward.fog[6].dispatcher jobs_class_1 3596336
scalar FogSequentialForward.fog[6].dispatcher remoteJobs_class_1 3581900
scalar FogSequentialForward.fog[6].dispatcher localJobs_class_1 14146
scalar FogSequentialForward.fog[6].dispatcher droppedJobsSLA_class_1 290
scalar FogSequentialForward.fog[6].server[0] rho 0.99995487928391
scalar FogSequentialForward.fog[6].server[0] congestionRatio 0
scalar FogSequentialForward.fog[6].server[0] totalJobs 14146
scalar FogSequentialForward.fog[6].server[0] droppedJobsQueue 691
scalar FogSequentialForward.fog[6].server[0] droppedJobsTimout 0
scalar FogSequentialForward.fog[6].server[0] droppedJobsSLA 8389
scalar FogSequentialForward.fog[6].server[0] droppedJobsTotal 9080
scalar FogSequentialForward.fog[7].dispatcher localJobs 14192
scalar FogSequentialForward.fog[7].dispatcher internalJobs 14506
scalar FogSequentialForward.fog[7].dispatcher externalJobs 3586296
scalar FogSequentialForward.fog[7].dispatcher remoteJobs 3586321
scalar FogSequentialForward.fog[7].dispatcher probeQueries 0
scalar FogSequentialForward.fog[7].dispatcher probeAnswers 0
scalar FogSequentialForward.fog[7].dispatcher droppedJobsSLA 289
scalar FogSequentialForward.fog[7].dispatcher jobs_class_1 3600802
scalar FogSequentialForward.fog[7].dispatcher remoteJobs_class_1 3586321
scalar FogSequentialForward.fog[7].dispatcher localJobs_class_1 14192
scalar FogSequentialForward.fog[7].dispatcher droppedJobsSLA_class_1 289
scalar FogSequentialForward.fog[7].server[0] rho 0.99993652105331
scalar FogSequentialForward.fog[7].server[0] congestionRatio 0
scalar FogSequentialForward.fog[7].server[0] totalJobs 14192
scalar FogSequentialForward.fog[7].server[0] droppedJobsQueue 692
scalar FogSequentialForward.fog[7].server[0] droppedJobsTimout 0
scalar FogSequentialForward.fog[7].server[0] droppedJobsSLA 8457
scalar FogSequentialForward.fog[7].server[0] droppedJobsTotal 9149
scalar FogSequentialForward.fog[8].dispatcher localJobs 14120
scalar FogSequentialForward.fog[8].dispatcher internalJobs 14475
scalar FogSequentialForward.fog[8].dispatcher externalJobs 3583934
scalar FogSequentialForward.fog[8].dispatcher remoteJobs 3583988
scalar FogSequentialForward.fog[8].dispatcher probeQueries 0
scalar FogSequentialForward.fog[8].dispatcher probeAnswers 0
scalar FogSequentialForward.fog[8].dispatcher droppedJobsSLA 301
scalar FogSequentialForward.fog[8].dispatcher jobs_class_1 3598409
scalar FogSequentialForward.fog[8].dispatcher remoteJobs_class_1 3583988
scalar FogSequentialForward.fog[8].dispatcher localJobs_class_1 14120
scalar FogSequentialForward.fog[8].dispatcher droppedJobsSLA_class_1 301
scalar FogSequentialForward.fog[8].server[0] rho 0.99995070695877
scalar FogSequentialForward.fog[8].server[0] congestionRatio 0
scalar FogSequentialForward.fog[8].server[0] totalJobs 14120
scalar FogSequentialForward.fog[8].server[0] droppedJobsQueue 690
scalar FogSequentialForward.fog[8].server[0] droppedJobsTimout 0
scalar FogSequentialForward.fog[8].server[0] droppedJobsSLA 8367
scalar FogSequentialForward.fog[8].server[0] droppedJobsTotal 9057
scalar FogSequentialForward.fog[9].dispatcher localJobs 14141
scalar FogSequentialForward.fog[9].dispatcher internalJobs 14523
scalar FogSequentialForward.fog[9].dispatcher externalJobs 3585646
scalar FogSequentialForward.fog[9].dispatcher remoteJobs 3585773
scalar FogSequentialForward.fog[9].dispatcher probeQueries 0
scalar FogSequentialForward.fog[9].dispatcher probeAnswers 0
scalar FogSequentialForward.fog[9].dispatcher droppedJobsSLA 255
scalar FogSequentialForward.fog[9].dispatcher jobs_class_1 3600169
scalar FogSequentialForward.fog[9].dispatcher remoteJobs_class_1 3585773
scalar FogSequentialForward.fog[9].dispatcher localJobs_class_1 14141
scalar FogSequentialForward.fog[9].dispatcher droppedJobsSLA_class_1 255
scalar FogSequentialForward.fog[9].server[0] rho 0.99994653463364
scalar FogSequentialForward.fog[9].server[0] congestionRatio 0
scalar FogSequentialForward.fog[9].server[0] totalJobs 14141
scalar FogSequentialForward.fog[9].server[0] droppedJobsQueue 690
scalar FogSequentialForward.fog[9].server[0] droppedJobsTimout 0
scalar FogSequentialForward.fog[9].server[0] droppedJobsSLA 8388
scalar FogSequentialForward.fog[9].server[0] droppedJobsTotal 9078
scalar FogSequentialForward.fog[10].dispatcher localJobs 14128
scalar FogSequentialForward.fog[10].dispatcher internalJobs 14470
scalar FogSequentialForward.fog[10].dispatcher externalJobs 3582606
scalar FogSequentialForward.fog[10].dispatcher remoteJobs 3582645
scalar FogSequentialForward.fog[10].dispatcher probeQueries 0
scalar FogSequentialForward.fog[10].dispatcher probeAnswers 0
scalar FogSequentialForward.fog[10].dispatcher droppedJobsSLA 303
scalar FogSequentialForward.fog[10].dispatcher jobs_class_1 3597076
scalar FogSequentialForward.fog[10].dispatcher remoteJobs_class_1 3582645
scalar FogSequentialForward.fog[10].dispatcher localJobs_class_1 14128
scalar FogSequentialForward.fog[10].dispatcher droppedJobsSLA_class_1 303
scalar FogSequentialForward.fog[10].server[0] rho 0.99994373321533
scalar FogSequentialForward.fog[10].server[0] congestionRatio 0
scalar FogSequentialForward.fog[10].server[0] totalJobs 14128
scalar FogSequentialForward.fog[10].server[0] droppedJobsQueue 690
scalar FogSequentialForward.fog[10].server[0] droppedJobsTimout 0
scalar FogSequentialForward.fog[10].server[0] droppedJobsSLA 8375
scalar FogSequentialForward.fog[10].server[0] droppedJobsTotal 9065
scalar FogSequentialForward.fog[11].dispatcher localJobs 14123
scalar FogSequentialForward.fog[11].dispatcher internalJobs 14507
scalar FogSequentialForward.fog[11].dispatcher externalJobs 3585423
scalar FogSequentialForward.fog[11].dispatcher remoteJobs 3585509
scalar FogSequentialForward.fog[11].dispatcher probeQueries 0
scalar FogSequentialForward.fog[11].dispatcher probeAnswers 0
scalar FogSequentialForward.fog[11].dispatcher droppedJobsSLA 298
scalar FogSequentialForward.fog[11].dispatcher jobs_class_1 3599930
scalar FogSequentialForward.fog[11].dispatcher remoteJobs_class_1 3585509
scalar FogSequentialForward.fog[11].dispatcher localJobs_class_1 14123
scalar FogSequentialForward.fog[11].dispatcher droppedJobsSLA_class_1 298
scalar FogSequentialForward.fog[11].server[0] rho 0.99994492530823
scalar FogSequentialForward.fog[11].server[0] congestionRatio 0
scalar FogSequentialForward.fog[11].server[0] totalJobs 14123
scalar FogSequentialForward.fog[11].server[0] droppedJobsQueue 689
scalar FogSequentialForward.fog[11].server[0] droppedJobsTimout 0
scalar FogSequentialForward.fog[11].server[0] droppedJobsSLA 8334
scalar FogSequentialForward.fog[11].server[0] droppedJobsTotal 9023
scalar FogSequentialForward.fog[12].dispatcher localJobs 14182
scalar FogSequentialForward.fog[12].dispatcher internalJobs 14269
scalar FogSequentialForward.fog[12].dispatcher externalJobs 3582386
scalar FogSequentialForward.fog[12].dispatcher remoteJobs 3582198
scalar FogSequentialForward.fog[12].dispatcher probeQueries 0
scalar FogSequentialForward.fog[12].dispatcher probeAnswers 0
scalar FogSequentialForward.fog[12].dispatcher droppedJobsSLA 275
scalar FogSequentialForward.fog[12].dispatcher jobs_class_1 3596655
scalar FogSequentialForward.fog[12].dispatcher remoteJobs_class_1 3582198
scalar FogSequentialForward.fog[12].dispatcher localJobs_class_1 14182
scalar FogSequentialForward.fog[12].dispatcher droppedJobsSLA_class_1 275
scalar FogSequentialForward.fog[12].server[0] rho 0.99994605779648
scalar FogSequentialForward.fog[12].server[0] congestionRatio 0
scalar FogSequentialForward.fog[12].server[0] totalJobs 14182
scalar FogSequentialForward.fog[12].server[0] droppedJobsQueue 692
scalar FogSequentialForward.fog[12].server[0] droppedJobsTimout 0
scalar FogSequentialForward.fog[12].server[0] droppedJobsSLA 8426
scalar FogSequentialForward.fog[12].server[0] droppedJobsTotal 9118
scalar FogSequentialForward.fog[13].dispatcher localJobs 14185
scalar FogSequentialForward.fog[13].dispatcher internalJobs 14307
scalar FogSequentialForward.fog[13].dispatcher externalJobs 3587018
scalar FogSequentialForward.fog[13].dispatcher remoteJobs 3586815
scalar FogSequentialForward.fog[13].dispatcher probeQueries 0
scalar FogSequentialForward.fog[13].dispatcher probeAnswers 0
scalar FogSequentialForward.fog[13].dispatcher droppedJobsSLA 325
scalar FogSequentialForward.fog[13].dispatcher jobs_class_1 3601325
scalar FogSequentialForward.fog[13].dispatcher remoteJobs_class_1 3586815
scalar FogSequentialForward.fog[13].dispatcher localJobs_class_1 14185
scalar FogSequentialForward.fog[13].dispatcher droppedJobsSLA_class_1 325
scalar FogSequentialForward.fog[13].server[0] rho 0.99994504451752
scalar FogSequentialForward.fog[13].server[0] congestionRatio 0
scalar FogSequentialForward.fog[13].server[0] totalJobs 14185
scalar FogSequentialForward.fog[13].server[0] droppedJobsQueue 689
scalar FogSequentialForward.fog[13].server[0] droppedJobsTimout 0
scalar FogSequentialForward.fog[13].server[0] droppedJobsSLA 8422
scalar FogSequentialForward.fog[13].server[0] droppedJobsTotal 9111
scalar FogSequentialForward.fog[14].dispatcher localJobs 14206
scalar FogSequentialForward.fog[14].dispatcher internalJobs 14815
scalar FogSequentialForward.fog[14].dispatcher externalJobs 3584506
scalar FogSequentialForward.fog[14].dispatcher remoteJobs 3584837
scalar FogSequentialForward.fog[14].dispatcher probeQueries 0
scalar FogSequentialForward.fog[14].dispatcher probeAnswers 0
scalar FogSequentialForward.fog[14].dispatcher droppedJobsSLA 278
scalar FogSequentialForward.fog[14].dispatcher jobs_class_1 3599321
scalar FogSequentialForward.fog[14].dispatcher remoteJobs_class_1 3584837
scalar FogSequentialForward.fog[14].dispatcher localJobs_class_1 14206
scalar FogSequentialForward.fog[14].dispatcher droppedJobsSLA_class_1 278
scalar FogSequentialForward.fog[14].server[0] rho 0.99994277954102
scalar FogSequentialForward.fog[14].server[0] congestionRatio 0
scalar FogSequentialForward.fog[14].server[0] totalJobs 14206
scalar FogSequentialForward.fog[14].server[0] droppedJobsQueue 693
scalar FogSequentialForward.fog[14].server[0] droppedJobsTimout 0
scalar FogSequentialForward.fog[14].server[0] droppedJobsSLA 8406
scalar FogSequentialForward.fog[14].server[0] droppedJobsTotal 9099
scalar FogSequentialForward.fog[15].dispatcher localJobs 14130
scalar FogSequentialForward.fog[15].dispatcher internalJobs 14496
scalar FogSequentialForward.fog[15].dispatcher externalJobs 3580420
scalar FogSequentialForward.fog[15].dispatcher remoteJobs 3580489
scalar FogSequentialForward.fog[15].dispatcher probeQueries 0
scalar FogSequentialForward.fog[15].dispatcher probeAnswers 0
scalar FogSequentialForward.fog[15].dispatcher droppedJobsSLA 297
scalar FogSequentialForward.fog[15].dispatcher jobs_class_1 3594916
scalar FogSequentialForward.fog[15].dispatcher remoteJobs_class_1 3580489
scalar FogSequentialForward.fog[15].dispatcher localJobs_class_1 14130
scalar FogSequentialForward.fog[15].dispatcher droppedJobsSLA_class_1 297
scalar FogSequentialForward.fog[15].server[0] rho 0.99995237588882
scalar FogSequentialForward.fog[15].server[0] congestionRatio 0
scalar FogSequentialForward.fog[15].server[0] totalJobs 14130
scalar FogSequentialForward.fog[15].server[0] droppedJobsQueue 689
scalar FogSequentialForward.fog[15].server[0] droppedJobsTimout 0
scalar FogSequentialForward.fog[15].server[0] droppedJobsSLA 8399
scalar FogSequentialForward.fog[15].server[0] droppedJobsTotal 9088
scalar FogSequentialForward.fog[16].dispatcher localJobs 14091
scalar FogSequentialForward.fog[16].dispatcher internalJobs 14472
scalar FogSequentialForward.fog[16].dispatcher externalJobs 3581713
scalar FogSequentialForward.fog[16].dispatcher remoteJobs 3581800
scalar FogSequentialForward.fog[16].dispatcher probeQueries 0
scalar FogSequentialForward.fog[16].dispatcher probeAnswers 0
scalar FogSequentialForward.fog[16].dispatcher droppedJobsSLA 294
scalar FogSequentialForward.fog[16].dispatcher jobs_class_1 3596185
scalar FogSequentialForward.fog[16].dispatcher remoteJobs_class_1 3581800
scalar FogSequentialForward.fog[16].dispatcher localJobs_class_1 14091
scalar FogSequentialForward.fog[16].dispatcher droppedJobsSLA_class_1 294
scalar FogSequentialForward.fog[16].server[0] rho 0.99994629621506
scalar FogSequentialForward.fog[16].server[0] congestionRatio 0
scalar FogSequentialForward.fog[16].server[0] totalJobs 14091
scalar FogSequentialForward.fog[16].server[0] droppedJobsQueue 692
scalar FogSequentialForward.fog[16].server[0] droppedJobsTimout 0
scalar FogSequentialForward.fog[16].server[0] droppedJobsSLA 8343
scalar FogSequentialForward.fog[16].server[0] droppedJobsTotal 9035
scalar FogSequentialForward.fog[17].dispatcher localJobs 14088
scalar FogSequentialForward.fog[17].dispatcher internalJobs 14241
scalar FogSequentialForward.fog[17].dispatcher externalJobs 3587769
scalar FogSequentialForward.fog[17].dispatcher remoteJobs 3587659
scalar FogSequentialForward.fog[17].dispatcher probeQueries 0
scalar FogSequentialForward.fog[17].dispatcher probeAnswers 0
scalar FogSequentialForward.fog[17].dispatcher droppedJobsSLA 263
scalar FogSequentialForward.fog[17].dispatcher jobs_class_1 3602010
scalar FogSequentialForward.fog[17].dispatcher remoteJobs_class_1 3587659
scalar FogSequentialForward.fog[17].dispatcher localJobs_class_1 14088
scalar FogSequentialForward.fog[17].dispatcher droppedJobsSLA_class_1 263
scalar FogSequentialForward.fog[17].server[0] rho 0.99994492530823
scalar FogSequentialForward.fog[17].server[0] congestionRatio 0
scalar FogSequentialForward.fog[17].server[0] totalJobs 14088
scalar FogSequentialForward.fog[17].server[0] droppedJobsQueue 689
scalar FogSequentialForward.fog[17].server[0] droppedJobsTimout 0
scalar FogSequentialForward.fog[17].server[0] droppedJobsSLA 8316
scalar FogSequentialForward.fog[17].server[0] droppedJobsTotal 9005
scalar FogSequentialForward.fog[18].dispatcher localJobs 14139
scalar FogSequentialForward.fog[18].dispatcher internalJobs 14488
scalar FogSequentialForward.fog[18].dispatcher externalJobs 3585242
scalar FogSequentialForward.fog[18].dispatcher remoteJobs 3585320
scalar FogSequentialForward.fog[18].dispatcher probeQueries 0
scalar FogSequentialForward.fog[18].dispatcher probeAnswers 0
scalar FogSequentialForward.fog[18].dispatcher droppedJobsSLA 271
scalar FogSequentialForward.fog[18].dispatcher jobs_class_1 3599730
scalar FogSequentialForward.fog[18].dispatcher remoteJobs_class_1 3585320
scalar FogSequentialForward.fog[18].dispatcher localJobs_class_1 14139
scalar FogSequentialForward.fog[18].dispatcher droppedJobsSLA_class_1 271
scalar FogSequentialForward.fog[18].server[0] rho 0.99994343519211
scalar FogSequentialForward.fog[18].server[0] congestionRatio 0
scalar FogSequentialForward.fog[18].server[0] totalJobs 14139
scalar FogSequentialForward.fog[18].server[0] droppedJobsQueue 691
scalar FogSequentialForward.fog[18].server[0] droppedJobsTimout 0
scalar FogSequentialForward.fog[18].server[0] droppedJobsSLA 8344
scalar FogSequentialForward.fog[18].server[0] droppedJobsTotal 9035
scalar FogSequentialForward.fog[19].dispatcher localJobs 14155
scalar FogSequentialForward.fog[19].dispatcher internalJobs 14485
scalar FogSequentialForward.fog[19].dispatcher externalJobs 3583203
scalar FogSequentialForward.fog[19].dispatcher remoteJobs 3583253
scalar FogSequentialForward.fog[19].dispatcher probeQueries 0
scalar FogSequentialForward.fog[19].dispatcher probeAnswers 0
scalar FogSequentialForward.fog[19].dispatcher droppedJobsSLA 280
scalar FogSequentialForward.fog[19].dispatcher jobs_class_1 3597688
scalar FogSequentialForward.fog[19].dispatcher remoteJobs_class_1 3583253
scalar FogSequentialForward.fog[19].dispatcher localJobs_class_1 14155
scalar FogSequentialForward.fog[19].dispatcher droppedJobsSLA_class_1 280
scalar FogSequentialForward.fog[19].server[0] rho 0.99994784593582
scalar FogSequentialForward.fog[19].server[0] congestionRatio 0
scalar FogSequentialForward.fog[19].server[0] totalJobs 14155
scalar FogSequentialForward.fog[19].server[0] droppedJobsQueue 691
scalar FogSequentialForward.fog[19].server[0] droppedJobsTimout 0
scalar FogSequentialForward.fog[19].server[0] droppedJobsSLA 8412
scalar FogSequentialForward.fog[19].server[0] droppedJobsTotal 9103
scalar FogSequentialForward.fog[20].dispatcher localJobs 14165
scalar FogSequentialForward.fog[20].dispatcher internalJobs 14334
scalar FogSequentialForward.fog[20].dispatcher externalJobs 3584257
scalar FogSequentialForward.fog[20].dispatcher remoteJobs 3584112
scalar FogSequentialForward.fog[20].dispatcher probeQueries 0
scalar FogSequentialForward.fog[20].dispatcher probeAnswers 0
scalar FogSequentialForward.fog[20].dispatcher droppedJobsSLA 314
scalar FogSequentialForward.fog[20].dispatcher jobs_class_1 3598591
scalar FogSequentialForward.fog[20].dispatcher remoteJobs_class_1 3584112
scalar FogSequentialForward.fog[20].dispatcher localJobs_class_1 14165
scalar FogSequentialForward.fog[20].dispatcher droppedJobsSLA_class_1 314
scalar FogSequentialForward.fog[20].server[0] rho 0.99995213747025
scalar FogSequentialForward.fog[20].server[0] congestionRatio 0
scalar FogSequentialForward.fog[20].server[0] totalJobs 14165
scalar FogSequentialForward.fog[20].server[0] droppedJobsQueue 693
scalar FogSequentialForward.fog[20].server[0] droppedJobsTimout 0
scalar FogSequentialForward.fog[20].server[0] droppedJobsSLA 8461
scalar FogSequentialForward.fog[20].server[0] droppedJobsTotal 9154
scalar FogSequentialForward.fog[21].dispatcher localJobs 14147
scalar FogSequentialForward.fog[21].dispatcher internalJobs 14584
scalar FogSequentialForward.fog[21].dispatcher externalJobs 3581176
scalar FogSequentialForward.fog[21].dispatcher remoteJobs 3581331
scalar FogSequentialForward.fog[21].dispatcher probeQueries 0
scalar FogSequentialForward.fog[21].dispatcher probeAnswers 0
scalar FogSequentialForward.fog[21].dispatcher droppedJobsSLA 282
scalar FogSequentialForward.fog[21].dispatcher jobs_class_1 3595760
scalar FogSequentialForward.fog[21].dispatcher remoteJobs_class_1 3581331
scalar FogSequentialForward.fog[21].dispatcher localJobs_class_1 14147
scalar FogSequentialForward.fog[21].dispatcher droppedJobsSLA_class_1 282
scalar FogSequentialForward.fog[21].server[0] rho 0.99995195865631
scalar FogSequentialForward.fog[21].server[0] congestionRatio 0
scalar FogSequentialForward.fog[21].server[0] totalJobs 14147
scalar FogSequentialForward.fog[21].server[0] droppedJobsQueue 692
scalar FogSequentialForward.fog[21].server[0] droppedJobsTimout 0
scalar FogSequentialForward.fog[21].server[0] droppedJobsSLA 8361
scalar FogSequentialForward.fog[21].server[0] droppedJobsTotal 9053
scalar FogSequentialForward.fog[22].dispatcher localJobs 14167
scalar FogSequentialForward.fog[22].dispatcher internalJobs 14557
scalar FogSequentialForward.fog[22].dispatcher externalJobs 3585765
scalar FogSequentialForward.fog[22].dispatcher remoteJobs 3585856
scalar FogSequentialForward.fog[22].dispatcher probeQueries 0
scalar FogSequentialForward.fog[22].dispatcher probeAnswers 0
scalar FogSequentialForward.fog[22].dispatcher droppedJobsSLA 299
scalar FogSequentialForward.fog[22].dispatcher jobs_class_1 3600322
scalar FogSequentialForward.fog[22].dispatcher remoteJobs_class_1 3585856
scalar FogSequentialForward.fog[22].dispatcher localJobs_class_1 14167
scalar FogSequentialForward.fog[22].dispatcher droppedJobsSLA_class_1 299
scalar FogSequentialForward.fog[22].server[0] rho 0.99994260072708
scalar FogSequentialForward.fog[22].server[0] congestionRatio 0
scalar FogSequentialForward.fog[22].server[0] totalJobs 14167
scalar FogSequentialForward.fog[22].server[0] droppedJobsQueue 688
scalar FogSequentialForward.fog[22].server[0] droppedJobsTimout 0
scalar FogSequentialForward.fog[22].server[0] droppedJobsSLA 8367
scalar FogSequentialForward.fog[22].server[0] droppedJobsTotal 9055
scalar FogSequentialForward.fog[23].dispatcher localJobs 14129
scalar FogSequentialForward.fog[23].dispatcher internalJobs 14286
scalar FogSequentialForward.fog[23].dispatcher externalJobs 3584386
scalar FogSequentialForward.fog[23].dispatcher remoteJobs 3584241
scalar FogSequentialForward.fog[23].dispatcher probeQueries 0
scalar FogSequentialForward.fog[23].dispatcher probeAnswers 0
scalar FogSequentialForward.fog[23].dispatcher droppedJobsSLA 302
scalar FogSequentialForward.fog[23].dispatcher jobs_class_1 3598672
scalar FogSequentialForward.fog[23].dispatcher remoteJobs_class_1 3584241
scalar FogSequentialForward.fog[23].dispatcher localJobs_class_1 14129
scalar FogSequentialForward.fog[23].dispatcher droppedJobsSLA_class_1 302
scalar FogSequentialForward.fog[23].server[0] rho 0.99995291233063
scalar FogSequentialForward.fog[23].server[0] congestionRatio 0
scalar FogSequentialForward.fog[23].server[0] totalJobs 14129
scalar FogSequentialForward.fog[23].server[0] droppedJobsQueue 690
scalar FogSequentialForward.fog[23].server[0] droppedJobsTimout 0
scalar FogSequentialForward.fog[23].server[0] droppedJobsSLA 8396
scalar FogSequentialForward.fog[23].server[0] droppedJobsTotal 9086
scalar FogSequentialForward.fog[24].dispatcher localJobs 14150
scalar FogSequentialForward.fog[24].dispatcher internalJobs 14436
scalar FogSequentialForward.fog[24].dispatcher externalJobs 3581787
scalar FogSequentialForward.fog[24].dispatcher remoteJobs 3581766
scalar FogSequentialForward.fog[24].dispatcher probeQueries 0
scalar FogSequentialForward.fog[24].dispatcher probeAnswers 0
scalar FogSequentialForward.fog[24].dispatcher droppedJobsSLA 307
scalar FogSequentialForward.fog[24].dispatcher jobs_class_1 3596223
scalar FogSequentialForward.fog[24].dispatcher remoteJobs_class_1 3581766
scalar FogSequentialForward.fog[24].dispatcher localJobs_class_1 14150
scalar FogSequentialForward.fog[24].dispatcher droppedJobsSLA_class_1 307
scalar FogSequentialForward.fog[24].server[0] rho 0.99993485212326
scalar FogSequentialForward.fog[24].server[0] congestionRatio 0
scalar FogSequentialForward.fog[24].server[0] totalJobs 14150
scalar FogSequentialForward.fog[24].server[0] droppedJobsQueue 689
scalar FogSequentialForward.fog[24].server[0] droppedJobsTimout 0
scalar FogSequentialForward.fog[24].server[0] droppedJobsSLA 8350
scalar FogSequentialForward.fog[24].server[0] droppedJobsTotal 9039
scalar FogSequentialForward.fog[25].dispatcher localJobs 14153
scalar FogSequentialForward.fog[25].dispatcher internalJobs 14610
scalar FogSequentialForward.fog[25].dispatcher externalJobs 3584770
scalar FogSequentialForward.fog[25].dispatcher remoteJobs 3584929
scalar FogSequentialForward.fog[25].dispatcher probeQueries 0
scalar FogSequentialForward.fog[25].dispatcher probeAnswers 0
scalar FogSequentialForward.fog[25].dispatcher droppedJobsSLA 298
scalar FogSequentialForward.fog[25].dispatcher jobs_class_1 3599380
scalar FogSequentialForward.fog[25].dispatcher remoteJobs_class_1 3584929
scalar FogSequentialForward.fog[25].dispatcher localJobs_class_1 14153
scalar FogSequentialForward.fog[25].dispatcher droppedJobsSLA_class_1 298
scalar FogSequentialForward.fog[25].server[0] rho 0.99995315074921
scalar FogSequentialForward.fog[25].server[0] congestionRatio 0
scalar FogSequentialForward.fog[25].server[0] totalJobs 14153
scalar FogSequentialForward.fog[25].server[0] droppedJobsQueue 692
scalar FogSequentialForward.fog[25].server[0] droppedJobsTimout 0
scalar FogSequentialForward.fog[25].server[0] droppedJobsSLA 8425
scalar FogSequentialForward.fog[25].server[0] droppedJobsTotal 9117
scalar FogSequentialForward.fog[26].dispatcher localJobs 14176
scalar FogSequentialForward.fog[26].dispatcher internalJobs 14495
scalar FogSequentialForward.fog[26].dispatcher externalJobs 3581468
scalar FogSequentialForward.fog[26].dispatcher remoteJobs 3581497
scalar FogSequentialForward.fog[26].dispatcher probeQueries 0
scalar FogSequentialForward.fog[26].dispatcher probeAnswers 0
scalar FogSequentialForward.fog[26].dispatcher droppedJobsSLA 290
scalar FogSequentialForward.fog[26].dispatcher jobs_class_1 3595963
scalar FogSequentialForward.fog[26].dispatcher remoteJobs_class_1 3581497
scalar FogSequentialForward.fog[26].dispatcher localJobs_class_1 14176
scalar FogSequentialForward.fog[26].dispatcher droppedJobsSLA_class_1 290
scalar FogSequentialForward.fog[26].server[0] rho 0.99987053871155
scalar FogSequentialForward.fog[26].server[0] congestionRatio 0
scalar FogSequentialForward.fog[26].server[0] totalJobs 14176
scalar FogSequentialForward.fog[26].server[0] droppedJobsQueue 691
scalar FogSequentialForward.fog[26].server[0] droppedJobsTimout 0
scalar FogSequentialForward.fog[26].server[0] droppedJobsSLA 8411
scalar FogSequentialForward.fog[26].server[0] droppedJobsTotal 9102
scalar FogSequentialForward.fog[27].dispatcher localJobs 14165
scalar FogSequentialForward.fog[27].dispatcher internalJobs 14327
scalar FogSequentialForward.fog[27].dispatcher externalJobs 3584026
scalar FogSequentialForward.fog[27].dispatcher remoteJobs 3583942
scalar FogSequentialForward.fog[27].dispatcher probeQueries 0
scalar FogSequentialForward.fog[27].dispatcher probeAnswers 0
scalar FogSequentialForward.fog[27].dispatcher droppedJobsSLA 246
scalar FogSequentialForward.fog[27].dispatcher jobs_class_1 3598353
scalar FogSequentialForward.fog[27].dispatcher remoteJobs_class_1 3583942
scalar FogSequentialForward.fog[27].dispatcher localJobs_class_1 14165
scalar FogSequentialForward.fog[27].dispatcher droppedJobsSLA_class_1 246
scalar FogSequentialForward.fog[27].server[0] rho 0.99994480609894
scalar FogSequentialForward.fog[27].server[0] congestionRatio 0
scalar FogSequentialForward.fog[27].server[0] totalJobs 14165
scalar FogSequentialForward.fog[27].server[0] droppedJobsQueue 690
scalar FogSequentialForward.fog[27].server[0] droppedJobsTimout 0
scalar FogSequentialForward.fog[27].server[0] droppedJobsSLA 8376
scalar FogSequentialForward.fog[27].server[0] droppedJobsTotal 9066
scalar FogSequentialForward.fog[28].dispatcher localJobs 14126
scalar FogSequentialForward.fog[28].dispatcher internalJobs 14529
scalar FogSequentialForward.fog[28].dispatcher externalJobs 3586595
scalar FogSequentialForward.fog[28].dispatcher remoteJobs 3586696
scalar FogSequentialForward.fog[28].dispatcher probeQueries 0
scalar FogSequentialForward.fog[28].dispatcher probeAnswers 0
scalar FogSequentialForward.fog[28].dispatcher droppedJobsSLA 302
scalar FogSequentialForward.fog[28].dispatcher jobs_class_1 3601124
scalar FogSequentialForward.fog[28].dispatcher remoteJobs_class_1 3586696
scalar FogSequentialForward.fog[28].dispatcher localJobs_class_1 14126
scalar FogSequentialForward.fog[28].dispatcher droppedJobsSLA_class_1 302
scalar FogSequentialForward.fog[28].server[0] rho 0.99994134902954
scalar FogSequentialForward.fog[28].server[0] congestionRatio 0
scalar FogSequentialForward.fog[28].server[0] totalJobs 14126
scalar FogSequentialForward.fog[28].server[0] droppedJobsQueue 689
scalar FogSequentialForward.fog[28].server[0] droppedJobsTimout 0
scalar FogSequentialForward.fog[28].server[0] droppedJobsSLA 8355
scalar FogSequentialForward.fog[28].server[0] droppedJobsTotal 9044
scalar FogSequentialForward.fog[29].dispatcher localJobs 14144
scalar FogSequentialForward.fog[29].dispatcher internalJobs 14537
scalar FogSequentialForward.fog[29].dispatcher externalJobs 3584914
scalar FogSequentialForward.fog[29].dispatcher remoteJobs 3585047
scalar FogSequentialForward.fog[29].dispatcher probeQueries 0
scalar FogSequentialForward.fog[29].dispatcher probeAnswers 0
scalar FogSequentialForward.fog[29].dispatcher droppedJobsSLA 260
scalar FogSequentialForward.fog[29].dispatcher jobs_class_1 3599451
scalar FogSequentialForward.fog[29].dispatcher remoteJobs_class_1 3585047
scalar FogSequentialForward.fog[29].dispatcher localJobs_class_1 14144
scalar FogSequentialForward.fog[29].dispatcher droppedJobsSLA_class_1 260
scalar FogSequentialForward.fog[29].server[0] rho 0.9999480843544
scalar FogSequentialForward.fog[29].server[0] congestionRatio 0
scalar FogSequentialForward.fog[29].server[0] totalJobs 14144
scalar FogSequentialForward.fog[29].server[0] droppedJobsQueue 689
scalar FogSequentialForward.fog[29].server[0] droppedJobsTimout 0
scalar FogSequentialForward.fog[29].server[0] droppedJobsSLA 8417
scalar FogSequentialForward.fog[29].server[0] droppedJobsTotal 9106
scalar FogSequentialForward.fog[30].dispatcher localJobs 14142
scalar FogSequentialForward.fog[30].dispatcher internalJobs 14554
scalar FogSequentialForward.fog[30].dispatcher externalJobs 3582026
scalar FogSequentialForward.fog[30].dispatcher remoteJobs 3582150
scalar FogSequentialForward.fog[30].dispatcher probeQueries 0
scalar FogSequentialForward.fog[30].dispatcher probeAnswers 0
scalar FogSequentialForward.fog[30].dispatcher droppedJobsSLA 288
scalar FogSequentialForward.fog[30].dispatcher jobs_class_1 3596580
scalar FogSequentialForward.fog[30].dispatcher remoteJobs_class_1 3582150
scalar FogSequentialForward.fog[30].dispatcher localJobs_class_1 14142
scalar FogSequentialForward.fog[30].dispatcher droppedJobsSLA_class_1 288
scalar FogSequentialForward.fog[30].server[0] rho 0.99995678663254
scalar FogSequentialForward.fog[30].server[0] congestionRatio 0
scalar FogSequentialForward.fog[30].server[0] totalJobs 14142
scalar FogSequentialForward.fog[30].server[0] droppedJobsQueue 692
scalar FogSequentialForward.fog[30].server[0] droppedJobsTimout 0
scalar FogSequentialForward.fog[30].server[0] droppedJobsSLA 8413
scalar FogSequentialForward.fog[30].server[0] droppedJobsTotal 9105
scalar FogSequentialForward.fog[31].dispatcher localJobs 14145
scalar FogSequentialForward.fog[31].dispatcher internalJobs 14428
scalar FogSequentialForward.fog[31].dispatcher externalJobs 3584180
scalar FogSequentialForward.fog[31].dispatcher remoteJobs 3584163
scalar FogSequentialForward.fog[31].dispatcher probeQueries 0
scalar FogSequentialForward.fog[31].dispatcher probeAnswers 0
scalar FogSequentialForward.fog[31].dispatcher droppedJobsSLA 300
scalar FogSequentialForward.fog[31].dispatcher jobs_class_1 3598608
scalar FogSequentialForward.fog[31].dispatcher remoteJobs_class_1 3584163
scalar FogSequentialForward.fog[31].dispatcher localJobs_class_1 14145
scalar FogSequentialForward.fog[31].dispatcher droppedJobsSLA_class_1 300
scalar FogSequentialForward.fog[31].server[0] rho 0.99994677305222
scalar FogSequentialForward.fog[31].server[0] congestionRatio 0
scalar FogSequentialForward.fog[31].server[0] totalJobs 14145
scalar FogSequentialForward.fog[31].server[0] droppedJobsQueue 690
scalar FogSequentialForward.fog[31].server[0] droppedJobsTimout 0
scalar FogSequentialForward.fog[31].server[0] droppedJobsSLA 8398
scalar FogSequentialForward.fog[31].server[0] droppedJobsTotal 9088
scalar FogSequentialForward.fog[32].dispatcher localJobs 14129
scalar FogSequentialForward.fog[32].dispatcher internalJobs 14255
scalar FogSequentialForward.fog[32].dispatcher externalJobs 3584029
scalar FogSequentialForward.fog[32].dispatcher remoteJobs 3583867
scalar FogSequentialForward.fog[32].dispatcher probeQueries 0
scalar FogSequentialForward.fog[32].dispatcher probeAnswers 0
scalar FogSequentialForward.fog[32].dispatcher droppedJobsSLA 288
scalar FogSequentialForward.fog[32].dispatcher jobs_class_1 3598284
scalar FogSequentialForward.fog[32].dispatcher remoteJobs_class_1 3583867
scalar FogSequentialForward.fog[32].dispatcher localJobs_class_1 14129
scalar FogSequentialForward.fog[32].dispatcher droppedJobsSLA_class_1 288
scalar FogSequentialForward.fog[32].server[0] rho 0.99988669157028
scalar FogSequentialForward.fog[32].server[0] congestionRatio 0
scalar FogSequentialForward.fog[32].server[0] totalJobs 14129
scalar FogSequentialForward.fog[32].server[0] droppedJobsQueue 690
scalar FogSequentialForward.fog[32].server[0] droppedJobsTimout 0
scalar FogSequentialForward.fog[32].server[0] droppedJobsSLA 8349
scalar FogSequentialForward.fog[32].server[0] droppedJobsTotal 9039
scalar FogSequentialForward.fog[33].dispatcher localJobs 14125
scalar FogSequentialForward.fog[33].dispatcher internalJobs 14572
scalar FogSequentialForward.fog[33].dispatcher externalJobs 3582707
scalar FogSequentialForward.fog[33].dispatcher remoteJobs 3582877
scalar FogSequentialForward.fog[33].dispatcher probeQueries 0
scalar FogSequentialForward.fog[33].dispatcher probeAnswers 0
scalar FogSequentialForward.fog[33].dispatcher droppedJobsSLA 277
scalar FogSequentialForward.fog[33].dispatcher jobs_class_1 3597279
scalar FogSequentialForward.fog[33].dispatcher remoteJobs_class_1 3582877
scalar FogSequentialForward.fog[33].dispatcher localJobs_class_1 14125
scalar FogSequentialForward.fog[33].dispatcher droppedJobsSLA_class_1 277
scalar FogSequentialForward.fog[33].server[0] rho 0.99994033575058
scalar FogSequentialForward.fog[33].server[0] congestionRatio 0
scalar FogSequentialForward.fog[33].server[0] totalJobs 14125
scalar FogSequentialForward.fog[33].server[0] droppedJobsQueue 688
scalar FogSequentialForward.fog[33].server[0] droppedJobsTimout 0
scalar FogSequentialForward.fog[33].server[0] droppedJobsSLA 8357
scalar FogSequentialForward.fog[33].server[0] droppedJobsTotal 9045
scalar FogSequentialForward.fog[34].dispatcher localJobs 14172
scalar FogSequentialForward.fog[34].dispatcher internalJobs 14253
scalar FogSequentialForward.fog[34].dispatcher externalJobs 3585993
scalar FogSequentialForward.fog[34].dispatcher remoteJobs 3585794
scalar FogSequentialForward.fog[34].dispatcher probeQueries 0
scalar FogSequentialForward.fog[34].dispatcher probeAnswers 0
scalar FogSequentialForward.fog[34].dispatcher droppedJobsSLA 280
scalar FogSequentialForward.fog[34].dispatcher jobs_class_1 3600246
scalar FogSequentialForward.fog[34].dispatcher remoteJobs_class_1 3585794
scalar FogSequentialForward.fog[34].dispatcher localJobs_class_1 14172
scalar FogSequentialForward.fog[34].dispatcher droppedJobsSLA_class_1 280
scalar FogSequentialForward.fog[34].server[0] rho 0.99994939565659
scalar FogSequentialForward.fog[34].server[0] congestionRatio 0
scalar FogSequentialForward.fog[34].server[0] totalJobs 14172
scalar FogSequentialForward.fog[34].server[0] droppedJobsQueue 693
scalar FogSequentialForward.fog[34].server[0] droppedJobsTimout 0
scalar FogSequentialForward.fog[34].server[0] droppedJobsSLA 8423
scalar FogSequentialForward.fog[34].server[0] droppedJobsTotal 9116
scalar FogSequentialForward.fog[35].dispatcher localJobs 14145
scalar FogSequentialForward.fog[35].dispatcher internalJobs 14474
scalar FogSequentialForward.fog[35].dispatcher externalJobs 3585101
scalar FogSequentialForward.fog[35].dispatcher remoteJobs 3585146
scalar FogSequentialForward.fog[35].dispatcher probeQueries 0
scalar FogSequentialForward.fog[35].dispatcher probeAnswers 0
scalar FogSequentialForward.fog[35].dispatcher droppedJobsSLA 284
scalar FogSequentialForward.fog[35].dispatcher jobs_class_1 3599575
scalar FogSequentialForward.fog[35].dispatcher remoteJobs_class_1 3585146
scalar FogSequentialForward.fog[35].dispatcher localJobs_class_1 14145
scalar FogSequentialForward.fog[35].dispatcher droppedJobsSLA_class_1 284
scalar FogSequentialForward.fog[35].server[0] rho 0.99994874000549
scalar FogSequentialForward.fog[35].server[0] congestionRatio 0
scalar FogSequentialForward.fog[35].server[0] totalJobs 14145
scalar FogSequentialForward.fog[35].server[0] droppedJobsQueue 694
scalar FogSequentialForward.fog[35].server[0] droppedJobsTimout 0
scalar FogSequentialForward.fog[35].server[0] droppedJobsSLA 8378
scalar FogSequentialForward.fog[35].server[0] droppedJobsTotal 9072
scalar FogSequentialForward.fog[36].dispatcher localJobs 14134
scalar FogSequentialForward.fog[36].dispatcher internalJobs 14572
scalar FogSequentialForward.fog[36].dispatcher externalJobs 3584381
scalar FogSequentialForward.fog[36].dispatcher remoteJobs 3584519
scalar FogSequentialForward.fog[36].dispatcher probeQueries 0
scalar FogSequentialForward.fog[36].dispatcher probeAnswers 0
scalar FogSequentialForward.fog[36].dispatcher droppedJobsSLA 300
scalar FogSequentialForward.fog[36].dispatcher jobs_class_1 3598953
scalar FogSequentialForward.fog[36].dispatcher remoteJobs_class_1 3584519
scalar FogSequentialForward.fog[36].dispatcher localJobs_class_1 14134
scalar FogSequentialForward.fog[36].dispatcher droppedJobsSLA_class_1 300
scalar FogSequentialForward.fog[36].server[0] rho 0.99994516372681
scalar FogSequentialForward.fog[36].server[0] congestionRatio 0
scalar FogSequentialForward.fog[36].server[0] totalJobs 14134
scalar FogSequentialForward.fog[36].server[0] droppedJobsQueue 690
scalar FogSequentialForward.fog[36].server[0] droppedJobsTimout 0
scalar FogSequentialForward.fog[36].server[0] droppedJobsSLA 8326
scalar FogSequentialForward.fog[36].server[0] droppedJobsTotal 9016
scalar FogSequentialForward.fog[37].dispatcher localJobs 14167
scalar FogSequentialForward.fog[37].dispatcher internalJobs 14278
scalar FogSequentialForward.fog[37].dispatcher externalJobs 3581082
scalar FogSequentialForward.fog[37].dispatcher remoteJobs 3580915
scalar FogSequentialForward.fog[37].dispatcher probeQueries 0
scalar FogSequentialForward.fog[37].dispatcher probeAnswers 0
scalar FogSequentialForward.fog[37].dispatcher droppedJobsSLA 278
scalar FogSequentialForward.fog[37].dispatcher jobs_class_1 3595360
scalar FogSequentialForward.fog[37].dispatcher remoteJobs_class_1 3580915
scalar FogSequentialForward.fog[37].dispatcher localJobs_class_1 14167
scalar FogSequentialForward.fog[37].dispatcher droppedJobsSLA_class_1 278
scalar FogSequentialForward.fog[37].server[0] rho 0.99995476007462
scalar FogSequentialForward.fog[37].server[0] congestionRatio 0
scalar FogSequentialForward.fog[37].server[0] totalJobs 14167
scalar FogSequentialForward.fog[37].server[0] droppedJobsQueue 689
scalar FogSequentialForward.fog[37].server[0] droppedJobsTimout 0
scalar FogSequentialForward.fog[37].server[0] droppedJobsSLA 8383
scalar FogSequentialForward.fog[37].server[0] droppedJobsTotal 9072
scalar FogSequentialForward.fog[38].dispatcher localJobs 14130
scalar FogSequentialForward.fog[38].dispatcher internalJobs 14521
scalar FogSequentialForward.fog[38].dispatcher externalJobs 3583287
scalar FogSequentialForward.fog[38].dispatcher remoteJobs 3583396
scalar FogSequentialForward.fog[38].dispatcher probeQueries 0
scalar FogSequentialForward.fog[38].dispatcher probeAnswers 0
scalar FogSequentialForward.fog[38].dispatcher droppedJobsSLA 282
scalar FogSequentialForward.fog[38].dispatcher jobs_class_1 3597808
scalar FogSequentialForward.fog[38].dispatcher remoteJobs_class_1 3583396
scalar FogSequentialForward.fog[38].dispatcher localJobs_class_1 14130
scalar FogSequentialForward.fog[38].dispatcher droppedJobsSLA_class_1 282
scalar FogSequentialForward.fog[38].server[0] rho 0.99994546175003
scalar FogSequentialForward.fog[38].server[0] congestionRatio 0
scalar FogSequentialForward.fog[38].server[0] totalJobs 14130
scalar FogSequentialForward.fog[38].server[0] droppedJobsQueue 690
scalar FogSequentialForward.fog[38].server[0] droppedJobsTimout 0
scalar FogSequentialForward.fog[38].server[0] droppedJobsSLA 8363
scalar FogSequentialForward.fog[38].server[0] droppedJobsTotal 9053
scalar FogSequentialForward.fog[39].dispatcher localJobs 14171
scalar FogSequentialForward.fog[39].dispatcher internalJobs 14528
scalar FogSequentialForward.fog[39].dispatcher externalJobs 3586487
scalar FogSequentialForward.fog[39].dispatcher remoteJobs 3586554
scalar FogSequentialForward.fog[39].dispatcher probeQueries 0
scalar FogSequentialForward.fog[39].dispatcher probeAnswers 0
scalar FogSequentialForward.fog[39].dispatcher droppedJobsSLA 290
scalar FogSequentialForward.fog[39].dispatcher jobs_class_1 3601015
scalar FogSequentialForward.fog[39].dispatcher remoteJobs_class_1 3586554
scalar FogSequentialForward.fog[39].dispatcher localJobs_class_1 14171
scalar FogSequentialForward.fog[39].dispatcher droppedJobsSLA_class_1 290
scalar FogSequentialForward.fog[39].server[0] rho 0.99994456768036
scalar FogSequentialForward.fog[39].server[0] congestionRatio 0
scalar FogSequentialForward.fog[39].server[0] totalJobs 14171
scalar FogSequentialForward.fog[39].server[0] droppedJobsQueue 690
scalar FogSequentialForward.fog[39].server[0] droppedJobsTimout 0
scalar FogSequentialForward.fog[39].server[0] droppedJobsSLA 8387
scalar FogSequentialForward.fog[39].server[0] droppedJobsTotal 9077
scalar FogSequentialForward.fog[40].dispatcher localJobs 14126
scalar FogSequentialForward.fog[40].dispatcher internalJobs 14429
scalar FogSequentialForward.fog[40].dispatcher externalJobs 3582569
scalar FogSequentialForward.fog[40].dispatcher remoteJobs 3582610
scalar FogSequentialForward.fog[40].dispatcher probeQueries 0
scalar FogSequentialForward.fog[40].dispatcher probeAnswers 0
scalar FogSequentialForward.fog[40].dispatcher droppedJobsSLA 262
scalar FogSequentialForward.fog[40].dispatcher jobs_class_1 3596998
scalar FogSequentialForward.fog[40].dispatcher remoteJobs_class_1 3582610
scalar FogSequentialForward.fog[40].dispatcher localJobs_class_1 14126
scalar FogSequentialForward.fog[40].dispatcher droppedJobsSLA_class_1 262
scalar FogSequentialForward.fog[40].server[0] rho 0.99995058774948
scalar FogSequentialForward.fog[40].server[0] congestionRatio 0
scalar FogSequentialForward.fog[40].server[0] totalJobs 14126
scalar FogSequentialForward.fog[40].server[0] droppedJobsQueue 690
scalar FogSequentialForward.fog[40].server[0] droppedJobsTimout 0
scalar FogSequentialForward.fog[40].server[0] droppedJobsSLA 8383
scalar FogSequentialForward.fog[40].server[0] droppedJobsTotal 9073
scalar FogSequentialForward.fog[41].dispatcher localJobs 14119
scalar FogSequentialForward.fog[41].dispatcher internalJobs 14332
scalar FogSequentialForward.fog[41].dispatcher externalJobs 3586614
scalar FogSequentialForward.fog[41].dispatcher remoteJobs 3586544
scalar FogSequentialForward.fog[41].dispatcher probeQueries 0
scalar FogSequentialForward.fog[41].dispatcher probeAnswers 0
scalar FogSequentialForward.fog[41].dispatcher droppedJobsSLA 283
scalar FogSequentialForward.fog[41].dispatcher jobs_class_1 3600946
scalar FogSequentialForward.fog[41].dispatcher remoteJobs_class_1 3586544
scalar FogSequentialForward.fog[41].dispatcher localJobs_class_1 14119
scalar FogSequentialForward.fog[41].dispatcher droppedJobsSLA_class_1 283
scalar FogSequentialForward.fog[41].server[0] rho 0.99994611740112
scalar FogSequentialForward.fog[41].server[0] congestionRatio 0
scalar FogSequentialForward.fog[41].server[0] totalJobs 14119
scalar FogSequentialForward.fog[41].server[0] droppedJobsQueue 689
scalar FogSequentialForward.fog[41].server[0] droppedJobsTimout 0
scalar FogSequentialForward.fog[41].server[0] droppedJobsSLA 8381
scalar FogSequentialForward.fog[41].server[0] droppedJobsTotal 9070
scalar FogSequentialForward.fog[42].dispatcher localJobs 14158
scalar FogSequentialForward.fog[42].dispatcher internalJobs 14308
scalar FogSequentialForward.fog[42].dispatcher externalJobs 3585402
scalar FogSequentialForward.fog[42].dispatcher remoteJobs 3585259
scalar FogSequentialForward.fog[42].dispatcher probeQueries 0
scalar FogSequentialForward.fog[42].dispatcher probeAnswers 0
scalar FogSequentialForward.fog[42].dispatcher droppedJobsSLA 293
scalar FogSequentialForward.fog[42].dispatcher jobs_class_1 3599710
scalar FogSequentialForward.fog[42].dispatcher remoteJobs_class_1 3585259
scalar FogSequentialForward.fog[42].dispatcher localJobs_class_1 14158
scalar FogSequentialForward.fog[42].dispatcher droppedJobsSLA_class_1 293
scalar FogSequentialForward.fog[42].server[0] rho 0.99994945526123
scalar FogSequentialForward.fog[42].server[0] congestionRatio 0
scalar FogSequentialForward.fog[42].server[0] totalJobs 14158
scalar FogSequentialForward.fog[42].server[0] droppedJobsQueue 692
scalar FogSequentialForward.fog[42].server[0] droppedJobsTimout 0
scalar FogSequentialForward.fog[42].server[0] droppedJobsSLA 8422
scalar FogSequentialForward.fog[42].server[0] droppedJobsTotal 9114
scalar FogSequentialForward.fog[43].dispatcher localJobs 14109
scalar FogSequentialForward.fog[43].dispatcher internalJobs 14456
scalar FogSequentialForward.fog[43].dispatcher externalJobs 3586711
scalar FogSequentialForward.fog[43].dispatcher remoteJobs 3586775
scalar FogSequentialForward.fog[43].dispatcher probeQueries 0
scalar FogSequentialForward.fog[43].dispatcher probeAnswers 0
scalar FogSequentialForward.fog[43].dispatcher droppedJobsSLA 283
scalar FogSequentialForward.fog[43].dispatcher jobs_class_1 3601167
scalar FogSequentialForward.fog[43].dispatcher remoteJobs_class_1 3586775
scalar FogSequentialForward.fog[43].dispatcher localJobs_class_1 14109
scalar FogSequentialForward.fog[43].dispatcher droppedJobsSLA_class_1 283
scalar FogSequentialForward.fog[43].server[0] rho 0.99995297193527
scalar FogSequentialForward.fog[43].server[0] congestionRatio 0
scalar FogSequentialForward.fog[43].server[0] totalJobs 14109
scalar FogSequentialForward.fog[43].server[0] droppedJobsQueue 690
scalar FogSequentialForward.fog[43].server[0] droppedJobsTimout 0
scalar FogSequentialForward.fog[43].server[0] droppedJobsSLA 8357
scalar FogSequentialForward.fog[43].server[0] droppedJobsTotal 9047
scalar FogSequentialForward.fog[44].dispatcher localJobs 14133
scalar FogSequentialForward.fog[44].dispatcher internalJobs 14554
scalar FogSequentialForward.fog[44].dispatcher externalJobs 3586272
scalar FogSequentialForward.fog[44].dispatcher remoteJobs 3586390
scalar FogSequentialForward.fog[44].dispatcher probeQueries 0
scalar FogSequentialForward.fog[44].dispatcher probeAnswers 0
scalar FogSequentialForward.fog[44].dispatcher droppedJobsSLA 303
scalar FogSequentialForward.fog[44].dispatcher jobs_class_1 3600826
scalar FogSequentialForward.fog[44].dispatcher remoteJobs_class_1 3586390
scalar FogSequentialForward.fog[44].dispatcher localJobs_class_1 14133
scalar FogSequentialForward.fog[44].dispatcher droppedJobsSLA_class_1 303
scalar FogSequentialForward.fog[44].server[0] rho 0.99993765354156
scalar FogSequentialForward.fog[44].server[0] congestionRatio 0
scalar FogSequentialForward.fog[44].server[0] totalJobs 14133
scalar FogSequentialForward.fog[44].server[0] droppedJobsQueue 688
scalar FogSequentialForward.fog[44].server[0] droppedJobsTimout 0
scalar FogSequentialForward.fog[44].server[0] droppedJobsSLA 8344
scalar FogSequentialForward.fog[44].server[0] droppedJobsTotal 9032
scalar FogSequentialForward.fog[45].dispatcher localJobs 14159
scalar FogSequentialForward.fog[45].dispatcher internalJobs 14345
scalar FogSequentialForward.fog[45].dispatcher externalJobs 3582693
scalar FogSequentialForward.fog[45].dispatcher remoteJobs 3582602
scalar FogSequentialForward.fog[45].dispatcher probeQueries 0
scalar FogSequentialForward.fog[45].dispatcher probeAnswers 0
scalar FogSequentialForward.fog[45].dispatcher droppedJobsSLA 277
scalar FogSequentialForward.fog[45].dispatcher jobs_class_1 3597038
scalar FogSequentialForward.fog[45].dispatcher remoteJobs_class_1 3582602
scalar FogSequentialForward.fog[45].dispatcher localJobs_class_1 14159
scalar FogSequentialForward.fog[45].dispatcher droppedJobsSLA_class_1 277
scalar FogSequentialForward.fog[45].server[0] rho 0.99994450807571
scalar FogSequentialForward.fog[45].server[0] congestionRatio 0
scalar FogSequentialForward.fog[45].server[0] totalJobs 14159
scalar FogSequentialForward.fog[45].server[0] droppedJobsQueue 691
scalar FogSequentialForward.fog[45].server[0] droppedJobsTimout 0
scalar FogSequentialForward.fog[45].server[0] droppedJobsSLA 8348
scalar FogSequentialForward.fog[45].server[0] droppedJobsTotal 9039
scalar FogSequentialForward.fog[46].dispatcher localJobs 14149
scalar FogSequentialForward.fog[46].dispatcher internalJobs 14362
scalar FogSequentialForward.fog[46].dispatcher externalJobs 3584476
scalar FogSequentialForward.fog[46].dispatcher remoteJobs 3584391
scalar FogSequentialForward.fog[46].dispatcher probeQueries 0
scalar FogSequentialForward.fog[46].dispatcher probeAnswers 0
scalar FogSequentialForward.fog[46].dispatcher droppedJobsSLA 298
scalar FogSequentialForward.fog[46].dispatcher jobs_class_1 3598838
scalar FogSequentialForward.fog[46].dispatcher remoteJobs_class_1 3584391
scalar FogSequentialForward.fog[46].dispatcher localJobs_class_1 14149
scalar FogSequentialForward.fog[46].dispatcher droppedJobsSLA_class_1 298
scalar FogSequentialForward.fog[46].server[0] rho 0.99994933605194
scalar FogSequentialForward.fog[46].server[0] congestionRatio 0
scalar FogSequentialForward.fog[46].server[0] totalJobs 14149
scalar FogSequentialForward.fog[46].server[0] droppedJobsQueue 690
scalar FogSequentialForward.fog[46].server[0] droppedJobsTimout 0
scalar FogSequentialForward.fog[46].server[0] droppedJobsSLA 8378
scalar FogSequentialForward.fog[46].server[0] droppedJobsTotal 9068
scalar FogSequentialForward.fog[47].dispatcher localJobs 14155
scalar FogSequentialForward.fog[47].dispatcher internalJobs 14579
scalar FogSequentialForward.fog[47].dispatcher externalJobs 3582748
scalar FogSequentialForward.fog[47].dispatcher remoteJobs 3582884
scalar FogSequentialForward.fog[47].dispatcher probeQueries 0
scalar FogSequentialForward.fog[47].dispatcher probeAnswers 0
scalar FogSequentialForward.fog[47].dispatcher droppedJobsSLA 288
scalar FogSequentialForward.fog[47].dispatcher jobs_class_1 3597327
scalar FogSequentialForward.fog[47].dispatcher remoteJobs_class_1 3582884
scalar FogSequentialForward.fog[47].dispatcher localJobs_class_1 14155
scalar FogSequentialForward.fog[47].dispatcher droppedJobsSLA_class_1 288
scalar FogSequentialForward.fog[47].server[0] rho 0.99995350837708
scalar FogSequentialForward.fog[47].server[0] congestionRatio 0
scalar FogSequentialForward.fog[47].server[0] totalJobs 14155
scalar FogSequentialForward.fog[47].server[0] droppedJobsQueue 690
scalar FogSequentialForward.fog[47].server[0] droppedJobsTimout 0
scalar FogSequentialForward.fog[47].server[0] droppedJobsSLA 8384
scalar FogSequentialForward.fog[47].server[0] droppedJobsTotal 9074
scalar FogSequentialForward.fog[48].dispatcher localJobs 14123
scalar FogSequentialForward.fog[48].dispatcher internalJobs 14402
scalar FogSequentialForward.fog[48].dispatcher externalJobs 3582795
scalar FogSequentialForward.fog[48].dispatcher remoteJobs 3582769
scalar FogSequentialForward.fog[48].dispatcher probeQueries 0
scalar FogSequentialForward.fog[48].dispatcher probeAnswers 0
scalar FogSequentialForward.fog[48].dispatcher droppedJobsSLA 305
scalar FogSequentialForward.fog[48].dispatcher jobs_class_1 3597197
scalar FogSequentialForward.fog[48].dispatcher remoteJobs_class_1 3582769
scalar FogSequentialForward.fog[48].dispatcher localJobs_class_1 14123
scalar FogSequentialForward.fog[48].dispatcher droppedJobsSLA_class_1 305
scalar FogSequentialForward.fog[48].server[0] rho 0.99995297193527
scalar FogSequentialForward.fog[48].server[0] congestionRatio 0
scalar FogSequentialForward.fog[48].server[0] totalJobs 14123
scalar FogSequentialForward.fog[48].server[0] droppedJobsQueue 692
scalar FogSequentialForward.fog[48].server[0] droppedJobsTimout 0
scalar FogSequentialForward.fog[48].server[0] droppedJobsSLA 8351
scalar FogSequentialForward.fog[48].server[0] droppedJobsTotal 9043
scalar FogSequentialForward.fog[49].dispatcher localJobs 14163
scalar FogSequentialForward.fog[49].dispatcher internalJobs 14296
scalar FogSequentialForward.fog[49].dispatcher externalJobs 3585618
scalar FogSequentialForward.fog[49].dispatcher remoteJobs 3585469
scalar FogSequentialForward.fog[49].dispatcher probeQueries 0
scalar FogSequentialForward.fog[49].dispatcher probeAnswers 0
scalar FogSequentialForward.fog[49].dispatcher droppedJobsSLA 282
scalar FogSequentialForward.fog[49].dispatcher jobs_class_1 3599914
scalar FogSequentialForward.fog[49].dispatcher remoteJobs_class_1 3585469
scalar FogSequentialForward.fog[49].dispatcher localJobs_class_1 14163
scalar FogSequentialForward.fog[49].dispatcher droppedJobsSLA_class_1 282
scalar FogSequentialForward.fog[49].server[0] rho 0.99992370605469
scalar FogSequentialForward.fog[49].server[0] congestionRatio 0
scalar FogSequentialForward.fog[49].server[0] totalJobs 14163
scalar FogSequentialForward.fog[49].server[0] droppedJobsQueue 690
scalar FogSequentialForward.fog[49].server[0] droppedJobsTimout 0
scalar FogSequentialForward.fog[49].server[0] droppedJobsSLA 8410
scalar FogSequentialForward.fog[49].server[0] droppedJobsTotal 9100
scalar FogSequentialForward.fog[50].dispatcher localJobs 14143
scalar FogSequentialForward.fog[50].dispatcher internalJobs 14559
scalar FogSequentialForward.fog[50].dispatcher externalJobs 3585200
scalar FogSequentialForward.fog[50].dispatcher remoteJobs 3585324
scalar FogSequentialForward.fog[50].dispatcher probeQueries 0
scalar FogSequentialForward.fog[50].dispatcher probeAnswers 0
scalar FogSequentialForward.fog[50].dispatcher droppedJobsSLA 292
scalar FogSequentialForward.fog[50].dispatcher jobs_class_1 3599759
scalar FogSequentialForward.fog[50].dispatcher remoteJobs_class_1 3585324
scalar FogSequentialForward.fog[50].dispatcher localJobs_class_1 14143
scalar FogSequentialForward.fog[50].dispatcher droppedJobsSLA_class_1 292
scalar FogSequentialForward.fog[50].server[0] rho 0.99995028972626
scalar FogSequentialForward.fog[50].server[0] congestionRatio 0
scalar FogSequentialForward.fog[50].server[0] totalJobs 14143
scalar FogSequentialForward.fog[50].server[0] droppedJobsQueue 690
scalar FogSequentialForward.fog[50].server[0] droppedJobsTimout 0
scalar FogSequentialForward.fog[50].server[0] droppedJobsSLA 8357
scalar FogSequentialForward.fog[50].server[0] droppedJobsTotal 9047
scalar FogSequentialForward.fog[51].dispatcher localJobs 14179
scalar FogSequentialForward.fog[51].dispatcher internalJobs 14566
scalar FogSequentialForward.fog[51].dispatcher externalJobs 3585386
scalar FogSequentialForward.fog[51].dispatcher remoteJobs 3585474
scalar FogSequentialForward.fog[51].dispatcher probeQueries 0
scalar FogSequentialForward.fog[51].dispatcher probeAnswers 0
scalar FogSequentialForward.fog[51].dispatcher droppedJobsSLA 299
scalar FogSequentialForward.fog[51].dispatcher jobs_class_1 3599952
scalar FogSequentialForward.fog[51].dispatcher remoteJobs_class_1 3585474
scalar FogSequentialForward.fog[51].dispatcher localJobs_class_1 14179
scalar FogSequentialForward.fog[51].dispatcher droppedJobsSLA_class_1 299
scalar FogSequentialForward.fog[51].server[0] rho 0.99993300437927
scalar FogSequentialForward.fog[51].server[0] congestionRatio 0
scalar FogSequentialForward.fog[51].server[0] totalJobs 14179
scalar FogSequentialForward.fog[51].server[0] droppedJobsQueue 691
scalar FogSequentialForward.fog[51].server[0] droppedJobsTimout 0
scalar FogSequentialForward.fog[51].server[0] droppedJobsSLA 8369
scalar FogSequentialForward.fog[51].server[0] droppedJobsTotal 9060
scalar FogSequentialForward.fog[52].dispatcher localJobs 14087
scalar FogSequentialForward.fog[52].dispatcher internalJobs 14466
scalar FogSequentialForward.fog[52].dispatcher externalJobs 3583906
scalar FogSequentialForward.fog[52].dispatcher remoteJobs 3583983
scalar FogSequentialForward.fog[52].dispatcher probeQueries 0
scalar FogSequentialForward.fog[52].dispatcher probeAnswers 0
scalar FogSequentialForward.fog[52].dispatcher droppedJobsSLA 302
scalar FogSequentialForward.fog[52].dispatcher jobs_class_1 3598372
scalar FogSequentialForward.fog[52].dispatcher remoteJobs_class_1 3583983
scalar FogSequentialForward.fog[52].dispatcher localJobs_class_1 14087
scalar FogSequentialForward.fog[52].dispatcher droppedJobsSLA_class_1 302
scalar FogSequentialForward.fog[52].server[0] rho 0.99995106458664
scalar FogSequentialForward.fog[52].server[0] congestionRatio 0
scalar FogSequentialForward.fog[52].server[0] totalJobs 14087
scalar FogSequentialForward.fog[52].server[0] droppedJobsQueue 689
scalar FogSequentialForward.fog[52].server[0] droppedJobsTimout 0
scalar FogSequentialForward.fog[52].server[0] droppedJobsSLA 8345
scalar FogSequentialForward.fog[52].server[0] droppedJobsTotal 9034
scalar FogSequentialForward.fog[53].dispatcher localJobs 14151
scalar FogSequentialForward.fog[53].dispatcher internalJobs 14758
scalar FogSequentialForward.fog[53].dispatcher externalJobs 3583329
scalar FogSequentialForward.fog[53].dispatcher remoteJobs 3583668
scalar FogSequentialForward.fog[53].dispatcher probeQueries 0
scalar FogSequentialForward.fog[53].dispatcher probeAnswers 0
scalar FogSequentialForward.fog[53].dispatcher droppedJobsSLA 268
scalar FogSequentialForward.fog[53].dispatcher jobs_class_1 3598087
scalar FogSequentialForward.fog[53].dispatcher remoteJobs_class_1 3583668
scalar FogSequentialForward.fog[53].dispatcher localJobs_class_1 14151
scalar FogSequentialForward.fog[53].dispatcher droppedJobsSLA_class_1 268
scalar FogSequentialForward.fog[53].server[0] rho 0.99995064735413
scalar FogSequentialForward.fog[53].server[0] congestionRatio 0
scalar FogSequentialForward.fog[53].server[0] totalJobs 14151
scalar FogSequentialForward.fog[53].server[0] droppedJobsQueue 690
scalar FogSequentialForward.fog[53].server[0] droppedJobsTimout 0
scalar FogSequentialForward.fog[53].server[0] droppedJobsSLA 8402
scalar FogSequentialForward.fog[53].server[0] droppedJobsTotal 9092
scalar FogSequentialForward.fog[54].dispatcher localJobs 14139
scalar FogSequentialForward.fog[54].dispatcher internalJobs 14567
scalar FogSequentialForward.fog[54].dispatcher externalJobs 3584140
scalar FogSequentialForward.fog[54].dispatcher remoteJobs 3584249
scalar FogSequentialForward.fog[54].dispatcher probeQueries 0
scalar FogSequentialForward.fog[54].dispatcher probeAnswers 0
scalar FogSequentialForward.fog[54].dispatcher droppedJobsSLA 319
scalar FogSequentialForward.fog[54].dispatcher jobs_class_1 3598707
scalar FogSequentialForward.fog[54].dispatcher remoteJobs_class_1 3584249
scalar FogSequentialForward.fog[54].dispatcher localJobs_class_1 14139
scalar FogSequentialForward.fog[54].dispatcher droppedJobsSLA_class_1 319
scalar FogSequentialForward.fog[54].server[0] rho 0.99994748830795
scalar FogSequentialForward.fog[54].server[0] congestionRatio 0
scalar FogSequentialForward.fog[54].server[0] totalJobs 14139
scalar FogSequentialForward.fog[54].server[0] droppedJobsQueue 691
scalar FogSequentialForward.fog[54].server[0] droppedJobsTimout 0
scalar FogSequentialForward.fog[54].server[0] droppedJobsSLA 8400
scalar FogSequentialForward.fog[54].server[0] droppedJobsTotal 9091
scalar FogSequentialForward.fog[55].dispatcher localJobs 14197
scalar FogSequentialForward.fog[55].dispatcher internalJobs 14349
scalar FogSequentialForward.fog[55].dispatcher externalJobs 3582723
scalar FogSequentialForward.fog[55].dispatcher remoteJobs 3582590
scalar FogSequentialForward.fog[55].dispatcher probeQueries 0
scalar FogSequentialForward.fog[55].dispatcher probeAnswers 0
scalar FogSequentialForward.fog[55].dispatcher droppedJobsSLA 285
scalar FogSequentialForward.fog[55].dispatcher jobs_class_1 3597072
scalar FogSequentialForward.fog[55].dispatcher remoteJobs_class_1 3582590
scalar FogSequentialForward.fog[55].dispatcher localJobs_class_1 14197
scalar FogSequentialForward.fog[55].dispatcher droppedJobsSLA_class_1 285
scalar FogSequentialForward.fog[55].server[0] rho 0.99994367361069
scalar FogSequentialForward.fog[55].server[0] congestionRatio 0
scalar FogSequentialForward.fog[55].server[0] totalJobs 14197
scalar FogSequentialForward.fog[55].server[0] droppedJobsQueue 690
scalar FogSequentialForward.fog[55].server[0] droppedJobsTimout 0
scalar FogSequentialForward.fog[55].server[0] droppedJobsSLA 8441
scalar FogSequentialForward.fog[55].server[0] droppedJobsTotal 9131
scalar FogSequentialForward.fog[56].dispatcher localJobs 14126
scalar FogSequentialForward.fog[56].dispatcher internalJobs 14460
scalar FogSequentialForward.fog[56].dispatcher externalJobs 3580843
scalar FogSequentialForward.fog[56].dispatcher remoteJobs 3580897
scalar FogSequentialForward.fog[56].dispatcher probeQueries 0
scalar FogSequentialForward.fog[56].dispatcher probeAnswers 0
scalar FogSequentialForward.fog[56].dispatcher droppedJobsSLA 280
scalar FogSequentialForward.fog[56].dispatcher jobs_class_1 3595303
scalar FogSequentialForward.fog[56].dispatcher remoteJobs_class_1 3580897
scalar FogSequentialForward.fog[56].dispatcher localJobs_class_1 14126
scalar FogSequentialForward.fog[56].dispatcher droppedJobsSLA_class_1 280
scalar FogSequentialForward.fog[56].server[0] rho 0.99995368719101
scalar FogSequentialForward.fog[56].server[0] congestionRatio 0
scalar FogSequentialForward.fog[56].server[0] totalJobs 14126
scalar FogSequentialForward.fog[56].server[0] droppedJobsQueue 691
scalar FogSequentialForward.fog[56].server[0] droppedJobsTimout 0
scalar FogSequentialForward.fog[56].server[0] droppedJobsSLA 8372
scalar FogSequentialForward.fog[56].server[0] droppedJobsTotal 9063
scalar FogSequentialForward.fog[57].dispatcher localJobs 14159
scalar FogSequentialForward.fog[57].dispatcher internalJobs 14607
scalar FogSequentialForward.fog[57].dispatcher externalJobs 3583041
scalar FogSequentialForward.fog[57].dispatcher remoteJobs 3583209
scalar FogSequentialForward.fog[57].dispatcher probeQueries 0
scalar FogSequentialForward.fog[57].dispatcher probeAnswers 0
scalar FogSequentialForward.fog[57].dispatcher droppedJobsSLA 280
scalar FogSequentialForward.fog[57].dispatcher jobs_class_1 3597648
scalar FogSequentialForward.fog[57].dispatcher remoteJobs_class_1 3583209
scalar FogSequentialForward.fog[57].dispatcher localJobs_class_1 14159
scalar FogSequentialForward.fog[57].dispatcher droppedJobsSLA_class_1 280
scalar FogSequentialForward.fog[57].server[0] rho 0.99992257356644
scalar FogSequentialForward.fog[57].server[0] congestionRatio 0
scalar FogSequentialForward.fog[57].server[0] totalJobs 14159
scalar FogSequentialForward.fog[57].server[0] droppedJobsQueue 691
scalar FogSequentialForward.fog[57].server[0] droppedJobsTimout 0
scalar FogSequentialForward.fog[57].server[0] droppedJobsSLA 8390
scalar FogSequentialForward.fog[57].server[0] droppedJobsTotal 9081
scalar FogSequentialForward.fog[58].dispatcher localJobs 14188
scalar FogSequentialForward.fog[58].dispatcher internalJobs 14288
scalar FogSequentialForward.fog[58].dispatcher externalJobs 3584450
scalar FogSequentialForward.fog[58].dispatcher remoteJobs 3584263
scalar FogSequentialForward.fog[58].dispatcher probeQueries 0
scalar FogSequentialForward.fog[58].dispatcher probeAnswers 0
scalar FogSequentialForward.fog[58].dispatcher droppedJobsSLA 287
scalar FogSequentialForward.fog[58].dispatcher jobs_class_1 3598738
scalar FogSequentialForward.fog[58].dispatcher remoteJobs_class_1 3584263
scalar FogSequentialForward.fog[58].dispatcher localJobs_class_1 14188
scalar FogSequentialForward.fog[58].dispatcher droppedJobsSLA_class_1 287
scalar FogSequentialForward.fog[58].server[0] rho 0.99994069337845
scalar FogSequentialForward.fog[58].server[0] congestionRatio 0
scalar FogSequentialForward.fog[58].server[0] totalJobs 14188
scalar FogSequentialForward.fog[58].server[0] droppedJobsQueue 694
scalar FogSequentialForward.fog[58].server[0] droppedJobsTimout 0
scalar FogSequentialForward.fog[58].server[0] droppedJobsSLA 8404
scalar FogSequentialForward.fog[58].server[0] droppedJobsTotal 9098
scalar FogSequentialForward.fog[59].dispatcher localJobs 14119
scalar FogSequentialForward.fog[59].dispatcher internalJobs 14318
scalar FogSequentialForward.fog[59].dispatcher externalJobs 3581657
scalar FogSequentialForward.fog[59].dispatcher remoteJobs 3581567
scalar FogSequentialForward.fog[59].dispatcher probeQueries 0
scalar FogSequentialForward.fog[59].dispatcher probeAnswers 0
scalar FogSequentialForward.fog[59].dispatcher droppedJobsSLA 289
scalar FogSequentialForward.fog[59].dispatcher jobs_class_1 3595975
scalar FogSequentialForward.fog[59].dispatcher remoteJobs_class_1 3581567
scalar FogSequentialForward.fog[59].dispatcher localJobs_class_1 14119
scalar FogSequentialForward.fog[59].dispatcher droppedJobsSLA_class_1 289
scalar FogSequentialForward.fog[59].server[0] rho 0.99995583295822
scalar FogSequentialForward.fog[59].server[0] congestionRatio 0
scalar FogSequentialForward.fog[59].server[0] totalJobs 14119
scalar FogSequentialForward.fog[59].server[0] droppedJobsQueue 690
scalar FogSequentialForward.fog[59].server[0] droppedJobsTimout 0
scalar FogSequentialForward.fog[59].server[0] droppedJobsSLA 8363
scalar FogSequentialForward.fog[59].server[0] droppedJobsTotal 9053
scalar FogSequentialForward.fog[60].dispatcher localJobs 14105
scalar FogSequentialForward.fog[60].dispatcher internalJobs 14385
scalar FogSequentialForward.fog[60].dispatcher externalJobs 3583525
scalar FogSequentialForward.fog[60].dispatcher remoteJobs 3583527
scalar FogSequentialForward.fog[60].dispatcher probeQueries 0
scalar FogSequentialForward.fog[60].dispatcher probeAnswers 0
scalar FogSequentialForward.fog[60].dispatcher droppedJobsSLA 278
scalar FogSequentialForward.fog[60].dispatcher jobs_class_1 3597910
scalar FogSequentialForward.fog[60].dispatcher remoteJobs_class_1 3583527
scalar FogSequentialForward.fog[60].dispatcher localJobs_class_1 14105
scalar FogSequentialForward.fog[60].dispatcher droppedJobsSLA_class_1 278
scalar FogSequentialForward.fog[60].server[0] rho 0.99995297193527
scalar FogSequentialForward.fog[60].server[0] congestionRatio 0
scalar FogSequentialForward.fog[60].server[0] totalJobs 14105
scalar FogSequentialForward.fog[60].server[0] droppedJobsQueue 689
scalar FogSequentialForward.fog[60].server[0] droppedJobsTimout 0
scalar FogSequentialForward.fog[60].server[0] droppedJobsSLA 8318
scalar FogSequentialForward.fog[60].server[0] droppedJobsTotal 9007
scalar FogSequentialForward.fog[61].dispatcher localJobs 14137
scalar FogSequentialForward.fog[61].dispatcher internalJobs 14439
scalar FogSequentialForward.fog[61].dispatcher externalJobs 3582331
scalar FogSequentialForward.fog[61].dispatcher remoteJobs 3582348
scalar FogSequentialForward.fog[61].dispatcher probeQueries 0
scalar FogSequentialForward.fog[61].dispatcher probeAnswers 0
scalar FogSequentialForward.fog[61].dispatcher droppedJobsSLA 285
scalar FogSequentialForward.fog[61].dispatcher jobs_class_1 3596770
scalar FogSequentialForward.fog[61].dispatcher remoteJobs_class_1 3582348
scalar FogSequentialForward.fog[61].dispatcher localJobs_class_1 14137
scalar FogSequentialForward.fog[61].dispatcher droppedJobsSLA_class_1 285
scalar FogSequentialForward.fog[61].server[0] rho 0.99988573789597
scalar FogSequentialForward.fog[61].server[0] congestionRatio 0
scalar FogSequentialForward.fog[61].server[0] totalJobs 14137
scalar FogSequentialForward.fog[61].server[0] droppedJobsQueue 691
scalar FogSequentialForward.fog[61].server[0] droppedJobsTimout 0
scalar FogSequentialForward.fog[61].server[0] droppedJobsSLA 8375
scalar FogSequentialForward.fog[61].server[0] droppedJobsTotal 9066
scalar FogSequentialForward.fog[62].dispatcher localJobs 14122
scalar FogSequentialForward.fog[62].dispatcher internalJobs 14598
scalar FogSequentialForward.fog[62].dispatcher externalJobs 3583936
scalar FogSequentialForward.fog[62].dispatcher remoteJobs 3584115
scalar FogSequentialForward.fog[62].dispatcher probeQueries 0
scalar FogSequentialForward.fog[62].dispatcher probeAnswers 0
scalar FogSequentialForward.fog[62].dispatcher droppedJobsSLA 297
scalar FogSequentialForward.fog[62].dispatcher jobs_class_1 3598534
scalar FogSequentialForward.fog[62].dispatcher remoteJobs_class_1 3584115
scalar FogSequentialForward.fog[62].dispatcher localJobs_class_1 14122
scalar FogSequentialForward.fog[62].dispatcher droppedJobsSLA_class_1 297
scalar FogSequentialForward.fog[62].server[0] rho 0.99994701147079
scalar FogSequentialForward.fog[62].server[0] congestionRatio 0
scalar FogSequentialForward.fog[62].server[0] totalJobs 14122
scalar FogSequentialForward.fog[62].server[0] droppedJobsQueue 689
scalar FogSequentialForward.fog[62].server[0] droppedJobsTimout 0
scalar FogSequentialForward.fog[62].server[0] droppedJobsSLA 8366
scalar FogSequentialForward.fog[62].server[0] droppedJobsTotal 9055
scalar FogSequentialForward.fog[63].dispatcher localJobs 14105
scalar FogSequentialForward.fog[63].dispatcher internalJobs 14485
scalar FogSequentialForward.fog[63].dispatcher externalJobs 3587351
scalar FogSequentialForward.fog[63].dispatcher remoteJobs 3587461
scalar FogSequentialForward.fog[63].dispatcher probeQueries 0
scalar FogSequentialForward.fog[63].dispatcher probeAnswers 0
scalar FogSequentialForward.fog[63].dispatcher droppedJobsSLA 270
scalar FogSequentialForward.fog[63].dispatcher jobs_class_1 3601836
scalar FogSequentialForward.fog[63].dispatcher remoteJobs_class_1 3587461
scalar FogSequentialForward.fog[63].dispatcher localJobs_class_1 14105
scalar FogSequentialForward.fog[63].dispatcher droppedJobsSLA_class_1 270
scalar FogSequentialForward.fog[63].server[0] rho 0.99995195865631
scalar FogSequentialForward.fog[63].server[0] congestionRatio 0
scalar FogSequentialForward.fog[63].server[0] totalJobs 14105
scalar FogSequentialForward.fog[63].server[0] droppedJobsQueue 690
scalar FogSequentialForward.fog[63].server[0] droppedJobsTimout 0
scalar FogSequentialForward.fog[63].server[0] droppedJobsSLA 8366
scalar FogSequentialForward.fog[63].server[0] droppedJobsTotal 9056
scalar FogSequentialForward.fog[64].dispatcher localJobs 14148
scalar FogSequentialForward.fog[64].dispatcher internalJobs 14280
scalar FogSequentialForward.fog[64].dispatcher externalJobs 3585462
scalar FogSequentialForward.fog[64].dispatcher remoteJobs 3585312
scalar FogSequentialForward.fog[64].dispatcher probeQueries 0
scalar FogSequentialForward.fog[64].dispatcher probeAnswers 0
scalar FogSequentialForward.fog[64].dispatcher droppedJobsSLA 282
scalar FogSequentialForward.fog[64].dispatcher jobs_class_1 3599742
scalar FogSequentialForward.fog[64].dispatcher remoteJobs_class_1 3585312
scalar FogSequentialForward.fog[64].dispatcher localJobs_class_1 14148
scalar FogSequentialForward.fog[64].dispatcher droppedJobsSLA_class_1 282
scalar FogSequentialForward.fog[64].server[0] rho 0.99994421005249
scalar FogSequentialForward.fog[64].server[0] congestionRatio 0
scalar FogSequentialForward.fog[64].server[0] totalJobs 14148
scalar FogSequentialForward.fog[64].server[0] droppedJobsQueue 689
scalar FogSequentialForward.fog[64].server[0] droppedJobsTimout 0
scalar FogSequentialForward.fog[64].server[0] droppedJobsSLA 8398
scalar FogSequentialForward.fog[64].server[0] droppedJobsTotal 9087
scalar FogSequentialForward.fog[65].dispatcher localJobs 14167
scalar FogSequentialForward.fog[65].dispatcher internalJobs 14475
scalar FogSequentialForward.fog[65].dispatcher externalJobs 3581944
scalar FogSequentialForward.fog[65].dispatcher remoteJobs 3581960
scalar FogSequentialForward.fog[65].dispatcher probeQueries 0
scalar FogSequentialForward.fog[65].dispatcher probeAnswers 0
scalar FogSequentialForward.fog[65].dispatcher droppedJobsSLA 292
scalar FogSequentialForward.fog[65].dispatcher jobs_class_1 3596419
scalar FogSequentialForward.fog[65].dispatcher remoteJobs_class_1 3581960
scalar FogSequentialForward.fog[65].dispatcher localJobs_class_1 14167
scalar FogSequentialForward.fog[65].dispatcher droppedJobsSLA_class_1 292
scalar FogSequentialForward.fog[65].server[0] rho 0.99993169307709
scalar FogSequentialForward.fog[65].server[0] congestionRatio 0
[...]
scalar FogSequentialForward.fog[84].dispatcher probeAnswers 0
scalar FogSequentialForward.fog[84].dispatcher droppedJobsSLA 281
scalar FogSequentialForward.fog[84].dispatcher jobs_class_1 3597543
scalar FogSequentialForward.fog[84].dispatcher remoteJobs_class_1 3583114
scalar FogSequentialForward.fog[84].dispatcher localJobs_class_1 14148
scalar FogSequentialForward.fog[84].dispatcher droppedJobsSLA_class_1 281
scalar FogSequentialForward.fog[84].server[0] rho 0.99995452165604
scalar FogSequentialForward.fog[84].server[0] congestionRatio 0
scalar FogSequentialForward.fog[84].server[0] totalJobs 14148
scalar FogSequentialForward.fog[84].server[0] droppedJobsQueue 692
scalar FogSequentialForward.fog[84].server[0] droppedJobsTimout 0
scalar FogSequentialForward.fog[84].server[0] droppedJobsSLA 8356
scalar FogSequentialForward.fog[84].server[0] droppedJobsTotal 9048
scalar FogSequentialForward.fog[85].dispatcher localJobs 14167
scalar FogSequentialForward.fog[85].dispatcher internalJobs 14388
scalar FogSequentialForward.fog[85].dispatcher externalJobs 3580533
scalar FogSequentialForward.fog[85].dispatcher remoteJobs 3580486
scalar FogSequentialForward.fog[85].dispatcher probeQueries 0
scalar FogSequentialForward.fog[85].dispatcher probeAnswers 0
scalar FogSequentialForward.fog[85].dispatcher droppedJobsSLA 268
scalar FogSequentialForward.fog[85].dispatcher jobs_class_1 3594921
scalar FogSequentialForward.fog[85].dispatcher remoteJobs_class_1 3580486
scalar FogSequentialForward.fog[85].dispatcher localJobs_class_1 14167
scalar FogSequentialForward.fog[85].dispatcher droppedJobsSLA_class_1 268
scalar FogSequentialForward.fog[85].server[0] rho 0.99994868040085
scalar FogSequentialForward.fog[85].server[0] congestionRatio 0
scalar FogSequentialForward.fog[85].server[0] totalJobs 14167
scalar FogSequentialForward.fog[85].server[0] droppedJobsQueue 690
scalar FogSequentialForward.fog[85].server[0] droppedJobsTimout 0
scalar FogSequentialForward.fog[85].server[0] droppedJobsSLA 8399
scalar FogSequentialForward.fog[85].server[0] droppedJobsTotal 9089
scalar FogSequentialForward.fog[86].dispatcher localJobs 14145
scalar FogSequentialForward.fog[86].dispatcher internalJobs 14454
scalar FogSequentialForward.fog[86].dispatcher externalJobs 3583575
scalar FogSequentialForward.fog[86].dispatcher remoteJobs 3583558
scalar FogSequentialForward.fog[86].dispatcher probeQueries 0
scalar FogSequentialForward.fog[86].dispatcher probeAnswers 0
scalar FogSequentialForward.fog[86].dispatcher droppedJobsSLA 326
scalar FogSequentialForward.fog[86].dispatcher jobs_class_1 3598029
scalar FogSequentialForward.fog[86].dispatcher remoteJobs_class_1 3583558
scalar FogSequentialForward.fog[86].dispatcher localJobs_class_1 14145
scalar FogSequentialForward.fog[86].dispatcher droppedJobsSLA_class_1 326
scalar FogSequentialForward.fog[86].server[0] rho 0.99995219707489
scalar FogSequentialForward.fog[86].server[0] congestionRatio 0
scalar FogSequentialForward.fog[86].server[0] totalJobs 14145
scalar FogSequentialForward.fog[86].server[0] droppedJobsQueue 693
scalar FogSequentialForward.fog[86].server[0] droppedJobsTimout 0
scalar FogSequentialForward.fog[86].server[0] droppedJobsSLA 8395
scalar FogSequentialForward.fog[86].server[0] droppedJobsTotal 9088
scalar FogSequentialForward.fog[87].dispatcher localJobs 14143
scalar FogSequentialForward.fog[87].dispatcher internalJobs 14567
scalar FogSequentialForward.fog[87].dispatcher externalJobs 3580939
scalar FogSequentialForward.fog[87].dispatcher remoteJobs 3581069
scalar FogSequentialForward.fog[87].dispatcher probeQueries 0
scalar FogSequentialForward.fog[87].dispatcher probeAnswers 0
scalar FogSequentialForward.fog[87].dispatcher droppedJobsSLA 294
scalar FogSequentialForward.fog[87].dispatcher jobs_class_1 3595506
scalar FogSequentialForward.fog[87].dispatcher remoteJobs_class_1 3581069
scalar FogSequentialForward.fog[87].dispatcher localJobs_class_1 14143
scalar FogSequentialForward.fog[87].dispatcher droppedJobsSLA_class_1 294
scalar FogSequentialForward.fog[87].server[0] rho 0.99994218349457
scalar FogSequentialForward.fog[87].server[0] congestionRatio 0
scalar FogSequentialForward.fog[87].server[0] totalJobs 14143
scalar FogSequentialForward.fog[87].server[0] droppedJobsQueue 690
scalar FogSequentialForward.fog[87].server[0] droppedJobsTimout 0
scalar FogSequentialForward.fog[87].server[0] droppedJobsSLA 8353
scalar FogSequentialForward.fog[87].server[0] droppedJobsTotal 9043
scalar FogSequentialForward.fog[88].dispatcher localJobs 14157
scalar FogSequentialForward.fog[88].dispatcher internalJobs 14444
scalar FogSequentialForward.fog[88].dispatcher externalJobs 3585129
scalar FogSequentialForward.fog[88].dispatcher remoteJobs 3585152
scalar FogSequentialForward.fog[88].dispatcher probeQueries 0
scalar FogSequentialForward.fog[88].dispatcher probeAnswers 0
scalar FogSequentialForward.fog[88].dispatcher droppedJobsSLA 264
scalar FogSequentialForward.fog[88].dispatcher jobs_class_1 3599573
scalar FogSequentialForward.fog[88].dispatcher remoteJobs_class_1 3585152
scalar FogSequentialForward.fog[88].dispatcher localJobs_class_1 14157
scalar FogSequentialForward.fog[88].dispatcher droppedJobsSLA_class_1 264
scalar FogSequentialForward.fog[88].server[0] rho 0.9999577999115
scalar FogSequentialForward.fog[88].server[0] congestionRatio 0
scalar FogSequentialForward.fog[88].server[0] totalJobs 14157
scalar FogSequentialForward.fog[88].server[0] droppedJobsQueue 692
scalar FogSequentialForward.fog[88].server[0] droppedJobsTimout 0
scalar FogSequentialForward.fog[88].server[0] droppedJobsSLA 8409
scalar FogSequentialForward.fog[88].server[0] droppedJobsTotal 9101
scalar FogSequentialForward.fog[89].dispatcher localJobs 14091
scalar FogSequentialForward.fog[89].dispatcher internalJobs 14415
scalar FogSequentialForward.fog[89].dispatcher externalJobs 3585094
scalar FogSequentialForward.fog[89].dispatcher remoteJobs 3585159
scalar FogSequentialForward.fog[89].dispatcher probeQueries 0
scalar FogSequentialForward.fog[89].dispatcher probeAnswers 0
scalar FogSequentialForward.fog[89].dispatcher droppedJobsSLA 259
scalar FogSequentialForward.fog[89].dispatcher jobs_class_1 3599509
scalar FogSequentialForward.fog[89].dispatcher remoteJobs_class_1 3585159
scalar FogSequentialForward.fog[89].dispatcher localJobs_class_1 14091
scalar FogSequentialForward.fog[89].dispatcher droppedJobsSLA_class_1 259
scalar FogSequentialForward.fog[89].server[0] rho 0.9999486207962
scalar FogSequentialForward.fog[89].server[0] congestionRatio 0
scalar FogSequentialForward.fog[89].server[0] totalJobs 14091
scalar FogSequentialForward.fog[89].server[0] droppedJobsQueue 687
scalar FogSequentialForward.fog[89].server[0] droppedJobsTimout 0
scalar FogSequentialForward.fog[89].server[0] droppedJobsSLA 8295
scalar FogSequentialForward.fog[89].server[0] droppedJobsTotal 8982
scalar FogSequentialForward.fog[90].dispatcher localJobs 14160
scalar FogSequentialForward.fog[90].dispatcher internalJobs 14340
scalar FogSequentialForward.fog[90].dispatcher externalJobs 3586466
scalar FogSequentialForward.fog[90].dispatcher remoteJobs 3586365
scalar FogSequentialForward.fog[90].dispatcher probeQueries 0
scalar FogSequentialForward.fog[90].dispatcher probeAnswers 0
scalar FogSequentialForward.fog[90].dispatcher droppedJobsSLA 281
scalar FogSequentialForward.fog[90].dispatcher jobs_class_1 3600806
scalar FogSequentialForward.fog[90].dispatcher remoteJobs_class_1 3586365
scalar FogSequentialForward.fog[90].dispatcher localJobs_class_1 14160
scalar FogSequentialForward.fog[90].dispatcher droppedJobsSLA_class_1 281
scalar FogSequentialForward.fog[90].server[0] rho 0.99994784593582
scalar FogSequentialForward.fog[90].server[0] congestionRatio 0
scalar FogSequentialForward.fog[90].server[0] totalJobs 14160
scalar FogSequentialForward.fog[90].server[0] droppedJobsQueue 691
scalar FogSequentialForward.fog[90].server[0] droppedJobsTimout 0
scalar FogSequentialForward.fog[90].server[0] droppedJobsSLA 8412
scalar FogSequentialForward.fog[90].server[0] droppedJobsTotal 9103
scalar FogSequentialForward.fog[91].dispatcher localJobs 14171
scalar FogSequentialForward.fog[91].dispatcher internalJobs 14486
scalar FogSequentialForward.fog[91].dispatcher externalJobs 3583969
scalar FogSequentialForward.fog[91].dispatcher remoteJobs 3584023
scalar FogSequentialForward.fog[91].dispatcher probeQueries 0
scalar FogSequentialForward.fog[91].dispatcher probeAnswers 0
scalar FogSequentialForward.fog[91].dispatcher droppedJobsSLA 261
scalar FogSequentialForward.fog[91].dispatcher jobs_class_1 3598455
scalar FogSequentialForward.fog[91].dispatcher remoteJobs_class_1 3584023
scalar FogSequentialForward.fog[91].dispatcher localJobs_class_1 14171
scalar FogSequentialForward.fog[91].dispatcher droppedJobsSLA_class_1 261
scalar FogSequentialForward.fog[91].server[0] rho 0.99995857477188
scalar FogSequentialForward.fog[91].server[0] congestionRatio 0
scalar FogSequentialForward.fog[91].server[0] totalJobs 14171
scalar FogSequentialForward.fog[91].server[0] droppedJobsQueue 694
scalar FogSequentialForward.fog[91].server[0] droppedJobsTimout 0
scalar FogSequentialForward.fog[91].server[0] droppedJobsSLA 8385
scalar FogSequentialForward.fog[91].server[0] droppedJobsTotal 9079
scalar FogSequentialForward.fog[92].dispatcher localJobs 14117
scalar FogSequentialForward.fog[92].dispatcher internalJobs 14398
scalar FogSequentialForward.fog[92].dispatcher externalJobs 3582793
scalar FogSequentialForward.fog[92].dispatcher remoteJobs 3582753
scalar FogSequentialForward.fog[92].dispatcher probeQueries 0
scalar FogSequentialForward.fog[92].dispatcher probeAnswers 0
scalar FogSequentialForward.fog[92].dispatcher droppedJobsSLA 321
scalar FogSequentialForward.fog[92].dispatcher jobs_class_1 3597191
scalar FogSequentialForward.fog[92].dispatcher remoteJobs_class_1 3582753
scalar FogSequentialForward.fog[92].dispatcher localJobs_class_1 14117
scalar FogSequentialForward.fog[92].dispatcher droppedJobsSLA_class_1 321
scalar FogSequentialForward.fog[92].server[0] rho 0.99994742870331
scalar FogSequentialForward.fog[92].server[0] congestionRatio 0
scalar FogSequentialForward.fog[92].server[0] totalJobs 14117
scalar FogSequentialForward.fog[92].server[0] droppedJobsQueue 690
scalar FogSequentialForward.fog[92].server[0] droppedJobsTimout 0
scalar FogSequentialForward.fog[92].server[0] droppedJobsSLA 8367
scalar FogSequentialForward.fog[92].server[0] droppedJobsTotal 9057
scalar FogSequentialForward.fog[93].dispatcher localJobs 14141
scalar FogSequentialForward.fog[93].dispatcher internalJobs 14436
scalar FogSequentialForward.fog[93].dispatcher externalJobs 3585107
scalar FogSequentialForward.fog[93].dispatcher remoteJobs 3585112
scalar FogSequentialForward.fog[93].dispatcher probeQueries 0
scalar FogSequentialForward.fog[93].dispatcher probeAnswers 0
scalar FogSequentialForward.fog[93].dispatcher droppedJobsSLA 290
scalar FogSequentialForward.fog[93].dispatcher jobs_class_1 3599543
scalar FogSequentialForward.fog[93].dispatcher remoteJobs_class_1 3585112
scalar FogSequentialForward.fog[93].dispatcher localJobs_class_1 14141
scalar FogSequentialForward.fog[93].dispatcher droppedJobsSLA_class_1 290
scalar FogSequentialForward.fog[93].server[0] rho 0.99993807077408
scalar FogSequentialForward.fog[93].server[0] congestionRatio 0
scalar FogSequentialForward.fog[93].server[0] totalJobs 14141
scalar FogSequentialForward.fog[93].server[0] droppedJobsQueue 690
scalar FogSequentialForward.fog[93].server[0] droppedJobsTimout 0
scalar FogSequentialForward.fog[93].server[0] droppedJobsSLA 8378
scalar FogSequentialForward.fog[93].server[0] droppedJobsTotal 9068
scalar FogSequentialForward.fog[94].dispatcher localJobs 14117
scalar FogSequentialForward.fog[94].dispatcher internalJobs 14504
scalar FogSequentialForward.fog[94].dispatcher externalJobs 3588626
scalar FogSequentialForward.fog[94].dispatcher remoteJobs 3588719
scalar FogSequentialForward.fog[94].dispatcher probeQueries 0
scalar FogSequentialForward.fog[94].dispatcher probeAnswers 0
scalar FogSequentialForward.fog[94].dispatcher droppedJobsSLA 294
scalar FogSequentialForward.fog[94].dispatcher jobs_class_1 3603130
scalar FogSequentialForward.fog[94].dispatcher remoteJobs_class_1 3588719
scalar FogSequentialForward.fog[94].dispatcher localJobs_class_1 14117
scalar FogSequentialForward.fog[94].dispatcher droppedJobsSLA_class_1 294
scalar FogSequentialForward.fog[94].server[0] rho 0.99994170665741
scalar FogSequentialForward.fog[94].server[0] congestionRatio 0
scalar FogSequentialForward.fog[94].server[0] totalJobs 14117
scalar FogSequentialForward.fog[94].server[0] droppedJobsQueue 688
scalar FogSequentialForward.fog[94].server[0] droppedJobsTimout 0
scalar FogSequentialForward.fog[94].server[0] droppedJobsSLA 8351
scalar FogSequentialForward.fog[94].server[0] droppedJobsTotal 9039
scalar FogSequentialForward.fog[95].dispatcher localJobs 14114
scalar FogSequentialForward.fog[95].dispatcher internalJobs 14385
scalar FogSequentialForward.fog[95].dispatcher externalJobs 3583936
scalar FogSequentialForward.fog[95].dispatcher remoteJobs 3583899
scalar FogSequentialForward.fog[95].dispatcher probeQueries 0
scalar FogSequentialForward.fog[95].dispatcher probeAnswers 0
scalar FogSequentialForward.fog[95].dispatcher droppedJobsSLA 308
scalar FogSequentialForward.fog[95].dispatcher jobs_class_1 3598321
scalar FogSequentialForward.fog[95].dispatcher remoteJobs_class_1 3583899
scalar FogSequentialForward.fog[95].dispatcher localJobs_class_1 14114
scalar FogSequentialForward.fog[95].dispatcher droppedJobsSLA_class_1 308
scalar FogSequentialForward.fog[95].server[0] rho 0.99994766712189
scalar FogSequentialForward.fog[95].server[0] congestionRatio 0
scalar FogSequentialForward.fog[95].server[0] totalJobs 14114
scalar FogSequentialForward.fog[95].server[0] droppedJobsQueue 688
scalar FogSequentialForward.fog[95].server[0] droppedJobsTimout 0
scalar FogSequentialForward.fog[95].server[0] droppedJobsSLA 8374
scalar FogSequentialForward.fog[95].server[0] droppedJobsTotal 9062
scalar FogSequentialForward.fog[96].dispatcher localJobs 14151
scalar FogSequentialForward.fog[96].dispatcher internalJobs 14301
scalar FogSequentialForward.fog[96].dispatcher externalJobs 3584404
scalar FogSequentialForward.fog[96].dispatcher remoteJobs 3584259
scalar FogSequentialForward.fog[96].dispatcher probeQueries 0
scalar FogSequentialForward.fog[96].dispatcher probeAnswers 0
scalar FogSequentialForward.fog[96].dispatcher droppedJobsSLA 295
scalar FogSequentialForward.fog[96].dispatcher jobs_class_1 3598705
scalar FogSequentialForward.fog[96].dispatcher remoteJobs_class_1 3584259
scalar FogSequentialForward.fog[96].dispatcher localJobs_class_1 14151
scalar FogSequentialForward.fog[96].dispatcher droppedJobsSLA_class_1 295
scalar FogSequentialForward.fog[96].server[0] rho 0.99995070695877
scalar FogSequentialForward.fog[96].server[0] congestionRatio 0
scalar FogSequentialForward.fog[96].server[0] totalJobs 14151
scalar FogSequentialForward.fog[96].server[0] droppedJobsQueue 691
scalar FogSequentialForward.fog[96].server[0] droppedJobsTimout 0
scalar FogSequentialForward.fog[96].server[0] droppedJobsSLA 8396
scalar FogSequentialForward.fog[96].server[0] droppedJobsTotal 9087
scalar FogSequentialForward.fog[97].dispatcher localJobs 14128
scalar FogSequentialForward.fog[97].dispatcher internalJobs 14259
scalar FogSequentialForward.fog[97].dispatcher externalJobs 3584114
scalar FogSequentialForward.fog[97].dispatcher remoteJobs 3583980
scalar FogSequentialForward.fog[97].dispatcher probeQueries 0
scalar FogSequentialForward.fog[97].dispatcher probeAnswers 0
scalar FogSequentialForward.fog[97].dispatcher droppedJobsSLA 265
scalar FogSequentialForward.fog[97].dispatcher jobs_class_1 3598373
scalar FogSequentialForward.fog[97].dispatcher remoteJobs_class_1 3583980
scalar FogSequentialForward.fog[97].dispatcher localJobs_class_1 14128
scalar FogSequentialForward.fog[97].dispatcher droppedJobsSLA_class_1 265
scalar FogSequentialForward.fog[97].server[0] rho 0.99994868040085
scalar FogSequentialForward.fog[97].server[0] congestionRatio 0
scalar FogSequentialForward.fog[97].server[0] totalJobs 14128
scalar FogSequentialForward.fog[97].server[0] droppedJobsQueue 690
scalar FogSequentialForward.fog[97].server[0] droppedJobsTimout 0
scalar FogSequentialForward.fog[97].server[0] droppedJobsSLA 8364
scalar FogSequentialForward.fog[97].server[0] droppedJobsTotal 9054
scalar FogSequentialForward.fog[98].dispatcher localJobs 14102
scalar FogSequentialForward.fog[98].dispatcher internalJobs 14221
scalar FogSequentialForward.fog[98].dispatcher externalJobs 3586635
scalar FogSequentialForward.fog[98].dispatcher remoteJobs 3586475
scalar FogSequentialForward.fog[98].dispatcher probeQueries 0
scalar FogSequentialForward.fog[98].dispatcher probeAnswers 0
scalar FogSequentialForward.fog[98].dispatcher droppedJobsSLA 279
scalar FogSequentialForward.fog[98].dispatcher jobs_class_1 3600856
scalar FogSequentialForward.fog[98].dispatcher remoteJobs_class_1 3586475
scalar FogSequentialForward.fog[98].dispatcher localJobs_class_1 14102
scalar FogSequentialForward.fog[98].dispatcher droppedJobsSLA_class_1 279
scalar FogSequentialForward.fog[98].server[0] rho 0.99994146823883
scalar FogSequentialForward.fog[98].server[0] congestionRatio 0
scalar FogSequentialForward.fog[98].server[0] totalJobs 14102
scalar FogSequentialForward.fog[98].server[0] droppedJobsQueue 688
scalar FogSequentialForward.fog[98].server[0] droppedJobsTimout 0
scalar FogSequentialForward.fog[98].server[0] droppedJobsSLA 8349
scalar FogSequentialForward.fog[98].server[0] droppedJobsTotal 9037
scalar FogSequentialForward.fog[99].dispatcher localJobs 14152
scalar FogSequentialForward.fog[99].dispatcher internalJobs 14421
scalar FogSequentialForward.fog[99].dispatcher externalJobs 3585371
scalar FogSequentialForward.fog[99].dispatcher remoteJobs 3585394
scalar FogSequentialForward.fog[99].dispatcher probeQueries 0
scalar FogSequentialForward.fog[99].dispatcher probeAnswers 0
scalar FogSequentialForward.fog[99].dispatcher droppedJobsSLA 246
scalar FogSequentialForward.fog[99].dispatcher jobs_class_1 3599792
scalar FogSequentialForward.fog[99].dispatcher remoteJobs_class_1 3585394
scalar FogSequentialForward.fog[99].dispatcher localJobs_class_1 14152
scalar FogSequentialForward.fog[99].dispatcher droppedJobsSLA_class_1 246
scalar FogSequentialForward.fog[99].server[0] rho 0.99994868040085
scalar FogSequentialForward.fog[99].server[0] congestionRatio 0
scalar FogSequentialForward.fog[99].server[0] totalJobs 14152
scalar FogSequentialForward.fog[99].server[0] droppedJobsQueue 693
scalar FogSequentialForward.fog[99].server[0] droppedJobsTimout 0
scalar FogSequentialForward.fog[99].server[0] droppedJobsSLA 8416
scalar FogSequentialForward.fog[99].server[0] droppedJobsTotal 9109
scalar FogSequentialForward.sink avg_responseTime_1 11.245382164301
scalar FogSequentialForward.sink p90_responseTime_1 1.573900233267
scalar FogSequentialForward.sink med_responseTime_1 1.573900233267
scalar FogSequentialForward.sink avg_delayTime_1 0
scalar FogSequentialForward.sink p90_delayTime_1 0
scalar FogSequentialForward.sink med_delayTime_1 0
scalar FogSequentialForward.sink avg_queuingTime_1 6.972287506096
scalar FogSequentialForward.sink p90_queuingTime_1 0
scalar FogSequentialForward.sink med_queuingTime_1 0
scalar FogSequentialForward.sink avg_serviceTime_1 1.6716532540055
scalar FogSequentialForward.sink p90_serviceTime_1 1.499728256875
scalar FogSequentialForward.sink med_serviceTime_1 1.499728256875
scalar FogSequentialForward.sink avg_balancerTime_1 2.6014414041993
scalar FogSequentialForward.sink p90_balancerTime_1 0
scalar FogSequentialForward.sink med_balancerTime_1 0
scalar FogSequentialForward.sink avg_balancerCount_1 156.7749343832
scalar FogSequentialForward.sink p90_balancerCount_1 1
scalar FogSequentialForward.sink med_balancerCount_1 1

