version 2
run Fog-mul_001-rho_09-thr_11-3-20190713-20:21:17-73041
attr configname Fog-mul_001-rho_09-thr_11
attr datetime 20190713-20:21:17
attr experiment Fog-mul_001-rho_09-thr_11
attr inifile FogSequentialForward.ini
attr iterationvars ""
attr iterationvarsf ""
attr measurement ""
attr network FogSequentialForward
attr processid 73041
attr repetition 3
attr replication #3
attr resultdir results
attr runnumber 3
attr seedset 3
param FogSequentialForward.proctimeMul 0.01
param FogSequentialForward.rho 0.9
param FogSequentialForward.fog[*].dispatcher.thr 11
param FogSequentialForward.nSources 100
param FogSequentialForward.rho 0.9
param FogSequentialForward.proctimeMul 1.0
param FogSequentialForward.source[*].appId 1
param FogSequentialForward.source[*].realTime true
param FogSequentialForward.source[*].multiHop true
param FogSequentialForward.fog[*].nServers 1
param FogSequentialForward.fog[*].dispatcher.fanOut 1
param FogSequentialForward.fog[*].server[*].timeSlice -1s
param FogSequentialForward.fog[*].server[*].timeout -1s
param FogSequentialForward.fog[*].server[*].capacity 20
param FogSequentialForward.fog[*].server[*].fifo true
param FogSequentialForward.fog[*].server[*].maxServiceTime -1s
param FogSequentialForward.fog[*].dispatcher.thr 1

scalar FogSequentialForward.fog[0].dispatcher localJobs 1423552
scalar FogSequentialForward.fog[0].dispatcher internalJobs 1624252
scalar FogSequentialForward.fog[0].dispatcher externalJobs 6425197
scalar FogSequentialForward.fog[0].dispatcher remoteJobs 6426895
scalar FogSequentialForward.fog[0].dispatcher probeQueries 0
scalar FogSequentialForward.fog[0].dispatcher probeAnswers 0
scalar FogSequentialForward.fog[0].dispatcher droppedJobsSLA 199002
scalar FogSequentialForward.fog[0].dispatcher jobs_class_1 8049449
scalar FogSequentialForward.fog[0].dispatcher remoteJobs_class_1 6426895
scalar FogSequentialForward.fog[0].dispatcher localJobs_class_1 1423552
scalar FogSequentialForward.fog[0].dispatcher droppedJobsSLA_class_1 199002
scalar FogSequentialForward.fog[0].server[0] rho 1
scalar FogSequentialForward.fog[0].server[0] congestionRatio 0
scalar FogSequentialForward.fog[0].server[0] totalJobs 1423552
scalar FogSequentialForward.fog[0].server[0] droppedJobsQueue 46843
scalar FogSequentialForward.fog[0].server[0] droppedJobsTimout 0
scalar FogSequentialForward.fog[0].server[0] droppedJobsSLA 910525
scalar FogSequentialForward.fog[0].server[0] droppedJobsTotal 957368
scalar FogSequentialForward.fog[1].dispatcher localJobs 1424272
scalar FogSequentialForward.fog[1].dispatcher internalJobs 1622951
scalar FogSequentialForward.fog[1].dispatcher externalJobs 6418878
scalar FogSequentialForward.fog[1].dispatcher remoteJobs 6417939
scalar FogSequentialForward.fog[1].dispatcher probeQueries 0
scalar FogSequentialForward.fog[1].dispatcher probeAnswers 0
scalar FogSequentialForward.fog[1].dispatcher droppedJobsSLA 199618
scalar FogSequentialForward.fog[1].dispatcher jobs_class_1 8041829
scalar FogSequentialForward.fog[1].dispatcher remoteJobs_class_1 6417939
scalar FogSequentialForward.fog[1].dispatcher localJobs_class_1 1424272
scalar FogSequentialForward.fog[1].dispatcher droppedJobsSLA_class_1 199618
scalar FogSequentialForward.fog[1].server[0] rho 1
scalar FogSequentialForward.fog[1].server[0] congestionRatio 0
scalar FogSequentialForward.fog[1].server[0] totalJobs 1424272
scalar FogSequentialForward.fog[1].server[0] droppedJobsQueue 46799
scalar FogSequentialForward.fog[1].server[0] droppedJobsTimout 0
scalar FogSequentialForward.fog[1].server[0] droppedJobsSLA 910224
scalar FogSequentialForward.fog[1].server[0] droppedJobsTotal 957023
scalar FogSequentialForward.fog[2].dispatcher localJobs 1424194
scalar FogSequentialForward.fog[2].dispatcher internalJobs 1622933
scalar FogSequentialForward.fog[2].dispatcher externalJobs 6425836
scalar FogSequentialForward.fog[2].dispatcher remoteJobs 6424792
scalar FogSequentialForward.fog[2].dispatcher probeQueries 0
scalar FogSequentialForward.fog[2].dispatcher probeAnswers 0
scalar FogSequentialForward.fog[2].dispatcher droppedJobsSLA 199783
scalar FogSequentialForward.fog[2].dispatcher jobs_class_1 8048769
scalar FogSequentialForward.fog[2].dispatcher remoteJobs_class_1 6424792
scalar FogSequentialForward.fog[2].dispatcher localJobs_class_1 1424194
scalar FogSequentialForward.fog[2].dispatcher droppedJobsSLA_class_1 199783
scalar FogSequentialForward.fog[2].server[0] rho 1
scalar FogSequentialForward.fog[2].server[0] congestionRatio 0
scalar FogSequentialForward.fog[2].server[0] totalJobs 1424194
scalar FogSequentialForward.fog[2].server[0] droppedJobsQueue 46885
scalar FogSequentialForward.fog[2].server[0] droppedJobsTimout 0
scalar FogSequentialForward.fog[2].server[0] droppedJobsSLA 909789
scalar FogSequentialForward.fog[2].server[0] droppedJobsTotal 956674
scalar FogSequentialForward.fog[3].dispatcher localJobs 1424458
scalar FogSequentialForward.fog[3].dispatcher internalJobs 1623671
scalar FogSequentialForward.fog[3].dispatcher externalJobs 6426589
scalar FogSequentialForward.fog[3].dispatcher remoteJobs 6426077
scalar FogSequentialForward.fog[3].dispatcher probeQueries 0
scalar FogSequentialForward.fog[3].dispatcher probeAnswers 0
scalar FogSequentialForward.fog[3].dispatcher droppedJobsSLA 199725
scalar FogSequentialForward.fog[3].dispatcher jobs_class_1 8050260
scalar FogSequentialForward.fog[3].dispatcher remoteJobs_class_1 6426077
scalar FogSequentialForward.fog[3].dispatcher localJobs_class_1 1424458
scalar FogSequentialForward.fog[3].dispatcher droppedJobsSLA_class_1 199725
scalar FogSequentialForward.fog[3].server[0] rho 1
scalar FogSequentialForward.fog[3].server[0] congestionRatio 0
scalar FogSequentialForward.fog[3].server[0] totalJobs 1424458
scalar FogSequentialForward.fog[3].server[0] droppedJobsQueue 47252
scalar FogSequentialForward.fog[3].server[0] droppedJobsTimout 0
scalar FogSequentialForward.fog[3].server[0] droppedJobsSLA 910223
scalar FogSequentialForward.fog[3].server[0] droppedJobsTotal 957475
scalar FogSequentialForward.fog[4].dispatcher localJobs 1423734
scalar FogSequentialForward.fog[4].dispatcher internalJobs 1622713
scalar FogSequentialForward.fog[4].dispatcher externalJobs 6422718
scalar FogSequentialForward.fog[4].dispatcher remoteJobs 6422783
scalar FogSequentialForward.fog[4].dispatcher probeQueries 0
scalar FogSequentialForward.fog[4].dispatcher probeAnswers 0
scalar FogSequentialForward.fog[4].dispatcher droppedJobsSLA 198914
scalar FogSequentialForward.fog[4].dispatcher jobs_class_1 8045431
scalar FogSequentialForward.fog[4].dispatcher remoteJobs_class_1 6422783
scalar FogSequentialForward.fog[4].dispatcher localJobs_class_1 1423734
scalar FogSequentialForward.fog[4].dispatcher droppedJobsSLA_class_1 198914
scalar FogSequentialForward.fog[4].server[0] rho 1
scalar FogSequentialForward.fog[4].server[0] congestionRatio 0
scalar FogSequentialForward.fog[4].server[0] totalJobs 1423734
scalar FogSequentialForward.fog[4].server[0] droppedJobsQueue 47054
scalar FogSequentialForward.fog[4].server[0] droppedJobsTimout 0
scalar FogSequentialForward.fog[4].server[0] droppedJobsSLA 909847
scalar FogSequentialForward.fog[4].server[0] droppedJobsTotal 956901
scalar FogSequentialForward.fog[5].dispatcher localJobs 1423919
scalar FogSequentialForward.fog[5].dispatcher internalJobs 1625030
scalar FogSequentialForward.fog[5].dispatcher externalJobs 6425322
scalar FogSequentialForward.fog[5].dispatcher remoteJobs 6426821
scalar FogSequentialForward.fog[5].dispatcher probeQueries 0
scalar FogSequentialForward.fog[5].dispatcher probeAnswers 0
scalar FogSequentialForward.fog[5].dispatcher droppedJobsSLA 199612
scalar FogSequentialForward.fog[5].dispatcher jobs_class_1 8050352
scalar FogSequentialForward.fog[5].dispatcher remoteJobs_class_1 6426821
scalar FogSequentialForward.fog[5].dispatcher localJobs_class_1 1423919
scalar FogSequentialForward.fog[5].dispatcher droppedJobsSLA_class_1 199612
scalar FogSequentialForward.fog[5].server[0] rho 1
scalar FogSequentialForward.fog[5].server[0] congestionRatio 0
scalar FogSequentialForward.fog[5].server[0] totalJobs 1423919
scalar FogSequentialForward.fog[5].server[0] droppedJobsQueue 46738
scalar FogSequentialForward.fog[5].server[0] droppedJobsTimout 0
scalar FogSequentialForward.fog[5].server[0] droppedJobsSLA 909873
scalar FogSequentialForward.fog[5].server[0] droppedJobsTotal 956611
scalar FogSequentialForward.fog[6].dispatcher localJobs 1423855
scalar FogSequentialForward.fog[6].dispatcher internalJobs 1623744
scalar FogSequentialForward.fog[6].dispatcher externalJobs 6426496
scalar FogSequentialForward.fog[6].dispatcher remoteJobs 6427497
scalar FogSequentialForward.fog[6].dispatcher probeQueries 0
scalar FogSequentialForward.fog[6].dispatcher probeAnswers 0
scalar FogSequentialForward.fog[6].dispatcher droppedJobsSLA 198888
scalar FogSequentialForward.fog[6].dispatcher jobs_class_1 8050240
scalar FogSequentialForward.fog[6].dispatcher remoteJobs_class_1 6427497
scalar FogSequentialForward.fog[6].dispatcher localJobs_class_1 1423855
scalar FogSequentialForward.fog[6].dispatcher droppedJobsSLA_class_1 198888
scalar FogSequentialForward.fog[6].server[0] rho 1
scalar FogSequentialForward.fog[6].server[0] congestionRatio 0
scalar FogSequentialForward.fog[6].server[0] totalJobs 1423855
scalar FogSequentialForward.fog[6].server[0] droppedJobsQueue 46956
scalar FogSequentialForward.fog[6].server[0] droppedJobsTimout 0
scalar FogSequentialForward.fog[6].server[0] droppedJobsSLA 909877
scalar FogSequentialForward.fog[6].server[0] droppedJobsTotal 956833
scalar FogSequentialForward.fog[7].dispatcher localJobs 1424582
scalar FogSequentialForward.fog[7].dispatcher internalJobs 1621257
scalar FogSequentialForward.fog[7].dispatcher externalJobs 6425395
scalar FogSequentialForward.fog[7].dispatcher remoteJobs 6423134
scalar FogSequentialForward.fog[7].dispatcher probeQueries 0
scalar FogSequentialForward.fog[7].dispatcher probeAnswers 0
scalar FogSequentialForward.fog[7].dispatcher droppedJobsSLA 198936
scalar FogSequentialForward.fog[7].dispatcher jobs_class_1 8046652
scalar FogSequentialForward.fog[7].dispatcher remoteJobs_class_1 6423134
scalar FogSequentialForward.fog[7].dispatcher localJobs_class_1 1424582
scalar FogSequentialForward.fog[7].dispatcher droppedJobsSLA_class_1 198936
scalar FogSequentialForward.fog[7].server[0] rho 1
scalar FogSequentialForward.fog[7].server[0] congestionRatio 0
scalar FogSequentialForward.fog[7].server[0] totalJobs 1424582
scalar FogSequentialForward.fog[7].server[0] droppedJobsQueue 46831
scalar FogSequentialForward.fog[7].server[0] droppedJobsTimout 0
scalar FogSequentialForward.fog[7].server[0] droppedJobsSLA 910296
scalar FogSequentialForward.fog[7].server[0] droppedJobsTotal 957127
scalar FogSequentialForward.fog[8].dispatcher localJobs 1425048
scalar FogSequentialForward.fog[8].dispatcher internalJobs 1622870
scalar FogSequentialForward.fog[8].dispatcher externalJobs 6423504
scalar FogSequentialForward.fog[8].dispatcher remoteJobs 6422442
scalar FogSequentialForward.fog[8].dispatcher probeQueries 0
scalar FogSequentialForward.fog[8].dispatcher probeAnswers 0
scalar FogSequentialForward.fog[8].dispatcher droppedJobsSLA 198884
scalar FogSequentialForward.fog[8].dispatcher jobs_class_1 8046374
scalar FogSequentialForward.fog[8].dispatcher remoteJobs_class_1 6422442
scalar FogSequentialForward.fog[8].dispatcher localJobs_class_1 1425048
scalar FogSequentialForward.fog[8].dispatcher droppedJobsSLA_class_1 198884
scalar FogSequentialForward.fog[8].server[0] rho 1
scalar FogSequentialForward.fog[8].server[0] congestionRatio 0
scalar FogSequentialForward.fog[8].server[0] totalJobs 1425048
scalar FogSequentialForward.fog[8].server[0] droppedJobsQueue 46977
scalar FogSequentialForward.fog[8].server[0] droppedJobsTimout 0
scalar FogSequentialForward.fog[8].server[0] droppedJobsSLA 910410
scalar FogSequentialForward.fog[8].server[0] droppedJobsTotal 957387
scalar FogSequentialForward.fog[9].dispatcher localJobs 1424210
scalar FogSequentialForward.fog[9].dispatcher internalJobs 1623148
scalar FogSequentialForward.fog[9].dispatcher externalJobs 6424469
scalar FogSequentialForward.fog[9].dispatcher remoteJobs 6423860
scalar FogSequentialForward.fog[9].dispatcher probeQueries 0
scalar FogSequentialForward.fog[9].dispatcher probeAnswers 0
scalar FogSequentialForward.fog[9].dispatcher droppedJobsSLA 199547
scalar FogSequentialForward.fog[9].dispatcher jobs_class_1 8047617
scalar FogSequentialForward.fog[9].dispatcher remoteJobs_class_1 6423860
scalar FogSequentialForward.fog[9].dispatcher localJobs_class_1 1424210
scalar FogSequentialForward.fog[9].dispatcher droppedJobsSLA_class_1 199547
scalar FogSequentialForward.fog[9].server[0] rho 1
scalar FogSequentialForward.fog[9].server[0] congestionRatio 0
scalar FogSequentialForward.fog[9].server[0] totalJobs 1424210
scalar FogSequentialForward.fog[9].server[0] droppedJobsQueue 47067
scalar FogSequentialForward.fog[9].server[0] droppedJobsTimout 0
scalar FogSequentialForward.fog[9].server[0] droppedJobsSLA 910916
scalar FogSequentialForward.fog[9].server[0] droppedJobsTotal 957983
scalar FogSequentialForward.fog[10].dispatcher localJobs 1423950
scalar FogSequentialForward.fog[10].dispatcher internalJobs 1622782
scalar FogSequentialForward.fog[10].dispatcher externalJobs 6425689
scalar FogSequentialForward.fog[10].dispatcher remoteJobs 6424675
scalar FogSequentialForward.fog[10].dispatcher probeQueries 0
scalar FogSequentialForward.fog[10].dispatcher probeAnswers 0
scalar FogSequentialForward.fog[10].dispatcher droppedJobsSLA 199846
scalar FogSequentialForward.fog[10].dispatcher jobs_class_1 8048471
scalar FogSequentialForward.fog[10].dispatcher remoteJobs_class_1 6424675
scalar FogSequentialForward.fog[10].dispatcher localJobs_class_1 1423950
scalar FogSequentialForward.fog[10].dispatcher droppedJobsSLA_class_1 199846
scalar FogSequentialForward.fog[10].server[0] rho 1
scalar FogSequentialForward.fog[10].server[0] congestionRatio 0
scalar FogSequentialForward.fog[10].server[0] totalJobs 1423950
scalar FogSequentialForward.fog[10].server[0] droppedJobsQueue 46858
scalar FogSequentialForward.fog[10].server[0] droppedJobsTimout 0
scalar FogSequentialForward.fog[10].server[0] droppedJobsSLA 910577
scalar FogSequentialForward.fog[10].server[0] droppedJobsTotal 957435
scalar FogSequentialForward.fog[11].dispatcher localJobs 1424281
scalar FogSequentialForward.fog[11].dispatcher internalJobs 1621299
scalar FogSequentialForward.fog[11].dispatcher externalJobs 6420874
scalar FogSequentialForward.fog[11].dispatcher remoteJobs 6418575
scalar FogSequentialForward.fog[11].dispatcher probeQueries 0
scalar FogSequentialForward.fog[11].dispatcher probeAnswers 0
scalar FogSequentialForward.fog[11].dispatcher droppedJobsSLA 199317
scalar FogSequentialForward.fog[11].dispatcher jobs_class_1 8042173
scalar FogSequentialForward.fog[11].dispatcher remoteJobs_class_1 6418575
scalar FogSequentialForward.fog[11].dispatcher localJobs_class_1 1424281
scalar FogSequentialForward.fog[11].dispatcher droppedJobsSLA_class_1 199317
scalar FogSequentialForward.fog[11].server[0] rho 0.99999922513962
scalar FogSequentialForward.fog[11].server[0] congestionRatio 0
scalar FogSequentialForward.fog[11].server[0] totalJobs 1424281
scalar FogSequentialForward.fog[11].server[0] droppedJobsQueue 46888
scalar FogSequentialForward.fog[11].server[0] droppedJobsTimout 0
scalar FogSequentialForward.fog[11].server[0] droppedJobsSLA 910406
scalar FogSequentialForward.fog[11].server[0] droppedJobsTotal 957294
scalar FogSequentialForward.fog[12].dispatcher localJobs 1423934
scalar FogSequentialForward.fog[12].dispatcher internalJobs 1625847
scalar FogSequentialForward.fog[12].dispatcher externalJobs 6423717
scalar FogSequentialForward.fog[12].dispatcher remoteJobs 6426500
scalar FogSequentialForward.fog[12].dispatcher probeQueries 0
scalar FogSequentialForward.fog[12].dispatcher probeAnswers 0
scalar FogSequentialForward.fog[12].dispatcher droppedJobsSLA 199130
scalar FogSequentialForward.fog[12].dispatcher jobs_class_1 8049564
scalar FogSequentialForward.fog[12].dispatcher remoteJobs_class_1 6426500
scalar FogSequentialForward.fog[12].dispatcher localJobs_class_1 1423934
scalar FogSequentialForward.fog[12].dispatcher droppedJobsSLA_class_1 199130
scalar FogSequentialForward.fog[12].server[0] rho 1
scalar FogSequentialForward.fog[12].server[0] congestionRatio 0
scalar FogSequentialForward.fog[12].server[0] totalJobs 1423934
scalar FogSequentialForward.fog[12].server[0] droppedJobsQueue 46961
scalar FogSequentialForward.fog[12].server[0] droppedJobsTimout 0
scalar FogSequentialForward.fog[12].server[0] droppedJobsSLA 910011
scalar FogSequentialForward.fog[12].server[0] droppedJobsTotal 956972
scalar FogSequentialForward.fog[13].dispatcher localJobs 1424188
scalar FogSequentialForward.fog[13].dispatcher internalJobs 1623318
scalar FogSequentialForward.fog[13].dispatcher externalJobs 6425149
scalar FogSequentialForward.fog[13].dispatcher remoteJobs 6425280
scalar FogSequentialForward.fog[13].dispatcher probeQueries 0
scalar FogSequentialForward.fog[13].dispatcher probeAnswers 0
scalar FogSequentialForward.fog[13].dispatcher droppedJobsSLA 198999
scalar FogSequentialForward.fog[13].dispatcher jobs_class_1 8048467
scalar FogSequentialForward.fog[13].dispatcher remoteJobs_class_1 6425280
scalar FogSequentialForward.fog[13].dispatcher localJobs_class_1 1424188
scalar FogSequentialForward.fog[13].dispatcher droppedJobsSLA_class_1 198999
scalar FogSequentialForward.fog[13].server[0] rho 1
scalar FogSequentialForward.fog[13].server[0] congestionRatio 0
scalar FogSequentialForward.fog[13].server[0] totalJobs 1424188
scalar FogSequentialForward.fog[13].server[0] droppedJobsQueue 47060
scalar FogSequentialForward.fog[13].server[0] droppedJobsTimout 0
scalar FogSequentialForward.fog[13].server[0] droppedJobsSLA 909996
scalar FogSequentialForward.fog[13].server[0] droppedJobsTotal 957056
scalar FogSequentialForward.fog[14].dispatcher localJobs 1423715
scalar FogSequentialForward.fog[14].dispatcher internalJobs 1623250
scalar FogSequentialForward.fog[14].dispatcher externalJobs 6419263
scalar FogSequentialForward.fog[14].dispatcher remoteJobs 6419924
scalar FogSequentialForward.fog[14].dispatcher probeQueries 0
scalar FogSequentialForward.fog[14].dispatcher probeAnswers 0
scalar FogSequentialForward.fog[14].dispatcher droppedJobsSLA 198874
scalar FogSequentialForward.fog[14].dispatcher jobs_class_1 8042513
scalar FogSequentialForward.fog[14].dispatcher remoteJobs_class_1 6419924
scalar FogSequentialForward.fog[14].dispatcher localJobs_class_1 1423715
scalar FogSequentialForward.fog[14].dispatcher droppedJobsSLA_class_1 198874
scalar FogSequentialForward.fog[14].server[0] rho 1
scalar FogSequentialForward.fog[14].server[0] congestionRatio 0
scalar FogSequentialForward.fog[14].server[0] totalJobs 1423715
scalar FogSequentialForward.fog[14].server[0] droppedJobsQueue 46826
scalar FogSequentialForward.fog[14].server[0] droppedJobsTimout 0
scalar FogSequentialForward.fog[14].server[0] droppedJobsSLA 910094
scalar FogSequentialForward.fog[14].server[0] droppedJobsTotal 956920
scalar FogSequentialForward.fog[15].dispatcher localJobs 1423416
scalar FogSequentialForward.fog[15].dispatcher internalJobs 1624363
scalar FogSequentialForward.fog[15].dispatcher externalJobs 6422297
scalar FogSequentialForward.fog[15].dispatcher remoteJobs 6424356
scalar FogSequentialForward.fog[15].dispatcher probeQueries 0
scalar FogSequentialForward.fog[15].dispatcher probeAnswers 0
scalar FogSequentialForward.fog[15].dispatcher droppedJobsSLA 198888
scalar FogSequentialForward.fog[15].dispatcher jobs_class_1 8046660
scalar FogSequentialForward.fog[15].dispatcher remoteJobs_class_1 6424356
scalar FogSequentialForward.fog[15].dispatcher localJobs_class_1 1423416
scalar FogSequentialForward.fog[15].dispatcher droppedJobsSLA_class_1 198888
scalar FogSequentialForward.fog[15].server[0] rho 1
scalar FogSequentialForward.fog[15].server[0] congestionRatio 0
scalar FogSequentialForward.fog[15].server[0] totalJobs 1423416
scalar FogSequentialForward.fog[15].server[0] droppedJobsQueue 46665
scalar FogSequentialForward.fog[15].server[0] droppedJobsTimout 0
scalar FogSequentialForward.fog[15].server[0] droppedJobsSLA 909705
scalar FogSequentialForward.fog[15].server[0] droppedJobsTotal 956370
scalar FogSequentialForward.fog[16].dispatcher localJobs 1424246
scalar FogSequentialForward.fog[16].dispatcher internalJobs 1623607
scalar FogSequentialForward.fog[16].dispatcher externalJobs 6421921
scalar FogSequentialForward.fog[16].dispatcher remoteJobs 6422134
scalar FogSequentialForward.fog[16].dispatcher probeQueries 0
scalar FogSequentialForward.fog[16].dispatcher probeAnswers 0
scalar FogSequentialForward.fog[16].dispatcher droppedJobsSLA 199148
scalar FogSequentialForward.fog[16].dispatcher jobs_class_1 8045528
scalar FogSequentialForward.fog[16].dispatcher remoteJobs_class_1 6422134
scalar FogSequentialForward.fog[16].dispatcher localJobs_class_1 1424246
scalar FogSequentialForward.fog[16].dispatcher droppedJobsSLA_class_1 199148
scalar FogSequentialForward.fog[16].server[0] rho 1
scalar FogSequentialForward.fog[16].server[0] congestionRatio 0
scalar FogSequentialForward.fog[16].server[0] totalJobs 1424246
scalar FogSequentialForward.fog[16].server[0] droppedJobsQueue 46970
scalar FogSequentialForward.fog[16].server[0] droppedJobsTimout 0
scalar FogSequentialForward.fog[16].server[0] droppedJobsSLA 910824
scalar FogSequentialForward.fog[16].server[0] droppedJobsTotal 957794
scalar FogSequentialForward.fog[17].dispatcher localJobs 1423864
scalar FogSequentialForward.fog[17].dispatcher internalJobs 1624381
scalar FogSequentialForward.fog[17].dispatcher externalJobs 6423034
scalar FogSequentialForward.fog[17].dispatcher remoteJobs 6424063
scalar FogSequentialForward.fog[17].dispatcher probeQueries 0
scalar FogSequentialForward.fog[17].dispatcher probeAnswers 0
scalar FogSequentialForward.fog[17].dispatcher droppedJobsSLA 199488
scalar FogSequentialForward.fog[17].dispatcher jobs_class_1 8047415
scalar FogSequentialForward.fog[17].dispatcher remoteJobs_class_1 6424063
scalar FogSequentialForward.fog[17].dispatcher localJobs_class_1 1423864
scalar FogSequentialForward.fog[17].dispatcher droppedJobsSLA_class_1 199488
scalar FogSequentialForward.fog[17].server[0] rho 1
scalar FogSequentialForward.fog[17].server[0] congestionRatio 0
scalar FogSequentialForward.fog[17].server[0] totalJobs 1423864
scalar FogSequentialForward.fog[17].server[0] droppedJobsQueue 47037
scalar FogSequentialForward.fog[17].server[0] droppedJobsTimout 0
scalar FogSequentialForward.fog[17].server[0] droppedJobsSLA 909631
scalar FogSequentialForward.fog[17].server[0] droppedJobsTotal 956668
scalar FogSequentialForward.fog[18].dispatcher localJobs 1423560
scalar FogSequentialForward.fog[18].dispatcher internalJobs 1625252
scalar FogSequentialForward.fog[18].dispatcher externalJobs 6425721
scalar FogSequentialForward.fog[18].dispatcher remoteJobs 6426854
scalar FogSequentialForward.fog[18].dispatcher probeQueries 0
scalar FogSequentialForward.fog[18].dispatcher probeAnswers 0
scalar FogSequentialForward.fog[18].dispatcher droppedJobsSLA 200559
scalar FogSequentialForward.fog[18].dispatcher jobs_class_1 8050973
scalar FogSequentialForward.fog[18].dispatcher remoteJobs_class_1 6426854
scalar FogSequentialForward.fog[18].dispatcher localJobs_class_1 1423560
scalar FogSequentialForward.fog[18].dispatcher droppedJobsSLA_class_1 200559
scalar FogSequentialForward.fog[18].server[0] rho 1
scalar FogSequentialForward.fog[18].server[0] congestionRatio 0
scalar FogSequentialForward.fog[18].server[0] totalJobs 1423560
scalar FogSequentialForward.fog[18].server[0] droppedJobsQueue 46839
scalar FogSequentialForward.fog[18].server[0] droppedJobsTimout 0
scalar FogSequentialForward.fog[18].server[0] droppedJobsSLA 909786
scalar FogSequentialForward.fog[18].server[0] droppedJobsTotal 956625
scalar FogSequentialForward.fog[19].dispatcher localJobs 1423806
scalar FogSequentialForward.fog[19].dispatcher internalJobs 1623618
scalar FogSequentialForward.fog[19].dispatcher externalJobs 6425931
scalar FogSequentialForward.fog[19].dispatcher remoteJobs 6426751
scalar FogSequentialForward.fog[19].dispatcher probeQueries 0
scalar FogSequentialForward.fog[19].dispatcher probeAnswers 0
scalar FogSequentialForward.fog[19].dispatcher droppedJobsSLA 198992
scalar FogSequentialForward.fog[19].dispatcher jobs_class_1 8049549
scalar FogSequentialForward.fog[19].dispatcher remoteJobs_class_1 6426751
scalar FogSequentialForward.fog[19].dispatcher localJobs_class_1 1423806
scalar FogSequentialForward.fog[19].dispatcher droppedJobsSLA_class_1 198992
scalar FogSequentialForward.fog[19].server[0] rho 1
scalar FogSequentialForward.fog[19].server[0] congestionRatio 0
scalar FogSequentialForward.fog[19].server[0] totalJobs 1423806
scalar FogSequentialForward.fog[19].server[0] droppedJobsQueue 46904
scalar FogSequentialForward.fog[19].server[0] droppedJobsTimout 0
scalar FogSequentialForward.fog[19].server[0] droppedJobsSLA 910415
scalar FogSequentialForward.fog[19].server[0] droppedJobsTotal 957319
scalar FogSequentialForward.fog[20].dispatcher localJobs 1424477
scalar FogSequentialForward.fog[20].dispatcher internalJobs 1621638
scalar FogSequentialForward.fog[20].dispatcher externalJobs 6422349
scalar FogSequentialForward.fog[20].dispatcher remoteJobs 6420185
scalar FogSequentialForward.fog[20].dispatcher probeQueries 0
scalar FogSequentialForward.fog[20].dispatcher probeAnswers 0
scalar FogSequentialForward.fog[20].dispatcher droppedJobsSLA 199325
scalar FogSequentialForward.fog[20].dispatcher jobs_class_1 8043987
scalar FogSequentialForward.fog[20].dispatcher remoteJobs_class_1 6420185
scalar FogSequentialForward.fog[20].dispatcher localJobs_class_1 1424477
scalar FogSequentialForward.fog[20].dispatcher droppedJobsSLA_class_1 199325
scalar FogSequentialForward.fog[20].server[0] rho 1
scalar FogSequentialForward.fog[20].server[0] congestionRatio 0
scalar FogSequentialForward.fog[20].server[0] totalJobs 1424477
scalar FogSequentialForward.fog[20].server[0] droppedJobsQueue 46867
scalar FogSequentialForward.fog[20].server[0] droppedJobsTimout 0
scalar FogSequentialForward.fog[20].server[0] droppedJobsSLA 910372
scalar FogSequentialForward.fog[20].server[0] droppedJobsTotal 957239
scalar FogSequentialForward.fog[21].dispatcher localJobs 1423299
scalar FogSequentialForward.fog[21].dispatcher internalJobs 1624903
scalar FogSequentialForward.fog[21].dispatcher externalJobs 6425699
scalar FogSequentialForward.fog[21].dispatcher remoteJobs 6428340
scalar FogSequentialForward.fog[21].dispatcher probeQueries 0
scalar FogSequentialForward.fog[21].dispatcher probeAnswers 0
scalar FogSequentialForward.fog[21].dispatcher droppedJobsSLA 198963
scalar FogSequentialForward.fog[21].dispatcher jobs_class_1 8050602
scalar FogSequentialForward.fog[21].dispatcher remoteJobs_class_1 6428340
scalar FogSequentialForward.fog[21].dispatcher localJobs_class_1 1423299
scalar FogSequentialForward.fog[21].dispatcher droppedJobsSLA_class_1 198963
scalar FogSequentialForward.fog[21].server[0] rho 1
scalar FogSequentialForward.fog[21].server[0] congestionRatio 0
scalar FogSequentialForward.fog[21].server[0] totalJobs 1423299
scalar FogSequentialForward.fog[21].server[0] droppedJobsQueue 46840
scalar FogSequentialForward.fog[21].server[0] droppedJobsTimout 0
scalar FogSequentialForward.fog[21].server[0] droppedJobsSLA 910033
scalar FogSequentialForward.fog[21].server[0] droppedJobsTotal 956873
scalar FogSequentialForward.fog[22].dispatcher localJobs 1423748
scalar FogSequentialForward.fog[22].dispatcher internalJobs 1627306
scalar FogSequentialForward.fog[22].dispatcher externalJobs 6426171
scalar FogSequentialForward.fog[22].dispatcher remoteJobs 6430566
scalar FogSequentialForward.fog[22].dispatcher probeQueries 0
scalar FogSequentialForward.fog[22].dispatcher probeAnswers 0
scalar FogSequentialForward.fog[22].dispatcher droppedJobsSLA 199163
scalar FogSequentialForward.fog[22].dispatcher jobs_class_1 8053477
scalar FogSequentialForward.fog[22].dispatcher remoteJobs_class_1 6430566
scalar FogSequentialForward.fog[22].dispatcher localJobs_class_1 1423748
scalar FogSequentialForward.fog[22].dispatcher droppedJobsSLA_class_1 199163
scalar FogSequentialForward.fog[22].server[0] rho 1
scalar FogSequentialForward.fog[22].server[0] congestionRatio 0
scalar FogSequentialForward.fog[22].server[0] totalJobs 1423748
scalar FogSequentialForward.fog[22].server[0] droppedJobsQueue 47149
scalar FogSequentialForward.fog[22].server[0] droppedJobsTimout 0
scalar FogSequentialForward.fog[22].server[0] droppedJobsSLA 909526
scalar FogSequentialForward.fog[22].server[0] droppedJobsTotal 956675
scalar FogSequentialForward.fog[23].dispatcher localJobs 1423906
scalar FogSequentialForward.fog[23].dispatcher internalJobs 1621807
scalar FogSequentialForward.fog[23].dispatcher externalJobs 6427289
scalar FogSequentialForward.fog[23].dispatcher remoteJobs 6425046
scalar FogSequentialForward.fog[23].dispatcher probeQueries 0
scalar FogSequentialForward.fog[23].dispatcher probeAnswers 0
scalar FogSequentialForward.fog[23].dispatcher droppedJobsSLA 200144
scalar FogSequentialForward.fog[23].dispatcher jobs_class_1 8049096
scalar FogSequentialForward.fog[23].dispatcher remoteJobs_class_1 6425046
scalar FogSequentialForward.fog[23].dispatcher localJobs_class_1 1423906
scalar FogSequentialForward.fog[23].dispatcher droppedJobsSLA_class_1 200144
scalar FogSequentialForward.fog[23].server[0] rho 1
scalar FogSequentialForward.fog[23].server[0] congestionRatio 0
scalar FogSequentialForward.fog[23].server[0] totalJobs 1423906
scalar FogSequentialForward.fog[23].server[0] droppedJobsQueue 47016
scalar FogSequentialForward.fog[23].server[0] droppedJobsTimout 0
scalar FogSequentialForward.fog[23].server[0] droppedJobsSLA 910163
scalar FogSequentialForward.fog[23].server[0] droppedJobsTotal 957179
scalar FogSequentialForward.fog[24].dispatcher localJobs 1423653
scalar FogSequentialForward.fog[24].dispatcher internalJobs 1623773
scalar FogSequentialForward.fog[24].dispatcher externalJobs 6421352
scalar FogSequentialForward.fog[24].dispatcher remoteJobs 6422549
scalar FogSequentialForward.fog[24].dispatcher probeQueries 0
scalar FogSequentialForward.fog[24].dispatcher probeAnswers 0
scalar FogSequentialForward.fog[24].dispatcher droppedJobsSLA 198923
scalar FogSequentialForward.fog[24].dispatcher jobs_class_1 8045125
scalar FogSequentialForward.fog[24].dispatcher remoteJobs_class_1 6422549
scalar FogSequentialForward.fog[24].dispatcher localJobs_class_1 1423653
scalar FogSequentialForward.fog[24].dispatcher droppedJobsSLA_class_1 198923
scalar FogSequentialForward.fog[24].server[0] rho 1
scalar FogSequentialForward.fog[24].server[0] congestionRatio 0
scalar FogSequentialForward.fog[24].server[0] totalJobs 1423653
scalar FogSequentialForward.fog[24].server[0] droppedJobsQueue 46935
scalar FogSequentialForward.fog[24].server[0] droppedJobsTimout 0
scalar FogSequentialForward.fog[24].server[0] droppedJobsSLA 909912
scalar FogSequentialForward.fog[24].server[0] droppedJobsTotal 956847
scalar FogSequentialForward.fog[25].dispatcher localJobs 1422279
scalar FogSequentialForward.fog[25].dispatcher internalJobs 1622566
scalar FogSequentialForward.fog[25].dispatcher externalJobs 6418760
scalar FogSequentialForward.fog[25].dispatcher remoteJobs 6420256
scalar FogSequentialForward.fog[25].dispatcher probeQueries 0
scalar FogSequentialForward.fog[25].dispatcher probeAnswers 0
scalar FogSequentialForward.fog[25].dispatcher droppedJobsSLA 198791
scalar FogSequentialForward.fog[25].dispatcher jobs_class_1 8041326
scalar FogSequentialForward.fog[25].dispatcher remoteJobs_class_1 6420256
scalar FogSequentialForward.fog[25].dispatcher localJobs_class_1 1422279
scalar FogSequentialForward.fog[25].dispatcher droppedJobsSLA_class_1 198791
scalar FogSequentialForward.fog[25].server[0] rho 1
scalar FogSequentialForward.fog[25].server[0] congestionRatio 0
scalar FogSequentialForward.fog[25].server[0] totalJobs 1422279
scalar FogSequentialForward.fog[25].server[0] droppedJobsQueue 46738
scalar FogSequentialForward.fog[25].server[0] droppedJobsTimout 0
scalar FogSequentialForward.fog[25].server[0] droppedJobsSLA 909135
scalar FogSequentialForward.fog[25].server[0] droppedJobsTotal 955873
scalar FogSequentialForward.fog[26].dispatcher localJobs 1423342
scalar FogSequentialForward.fog[26].dispatcher internalJobs 1622955
scalar FogSequentialForward.fog[26].dispatcher externalJobs 6425210
scalar FogSequentialForward.fog[26].dispatcher remoteJobs 6425557
scalar FogSequentialForward.fog[26].dispatcher probeQueries 0
scalar FogSequentialForward.fog[26].dispatcher probeAnswers 0
scalar FogSequentialForward.fog[26].dispatcher droppedJobsSLA 199266
scalar FogSequentialForward.fog[26].dispatcher jobs_class_1 8048165
scalar FogSequentialForward.fog[26].dispatcher remoteJobs_class_1 6425557
scalar FogSequentialForward.fog[26].dispatcher localJobs_class_1 1423342
scalar FogSequentialForward.fog[26].dispatcher droppedJobsSLA_class_1 199266
scalar FogSequentialForward.fog[26].server[0] rho 1
scalar FogSequentialForward.fog[26].server[0] congestionRatio 0
scalar FogSequentialForward.fog[26].server[0] totalJobs 1423342
scalar FogSequentialForward.fog[26].server[0] droppedJobsQueue 46715
scalar FogSequentialForward.fog[26].server[0] droppedJobsTimout 0
scalar FogSequentialForward.fog[26].server[0] droppedJobsSLA 909872
scalar FogSequentialForward.fog[26].server[0] droppedJobsTotal 956587
scalar FogSequentialForward.fog[27].dispatcher localJobs 1425128
scalar FogSequentialForward.fog[27].dispatcher internalJobs 1623800
scalar FogSequentialForward.fog[27].dispatcher externalJobs 6427697
scalar FogSequentialForward.fog[27].dispatcher remoteJobs 6427249
scalar FogSequentialForward.fog[27].dispatcher probeQueries 0
scalar FogSequentialForward.fog[27].dispatcher probeAnswers 0
scalar FogSequentialForward.fog[27].dispatcher droppedJobsSLA 199120
scalar FogSequentialForward.fog[27].dispatcher jobs_class_1 8051497
scalar FogSequentialForward.fog[27].dispatcher remoteJobs_class_1 6427249
scalar FogSequentialForward.fog[27].dispatcher localJobs_class_1 1425128
scalar FogSequentialForward.fog[27].dispatcher droppedJobsSLA_class_1 199120
scalar FogSequentialForward.fog[27].server[0] rho 1
scalar FogSequentialForward.fog[27].server[0] congestionRatio 0
scalar FogSequentialForward.fog[27].server[0] totalJobs 1425128
scalar FogSequentialForward.fog[27].server[0] droppedJobsQueue 47025
scalar FogSequentialForward.fog[27].server[0] droppedJobsTimout 0
scalar FogSequentialForward.fog[27].server[0] droppedJobsSLA 911348
scalar FogSequentialForward.fog[27].server[0] droppedJobsTotal 958373
scalar FogSequentialForward.fog[28].dispatcher localJobs 1422993
scalar FogSequentialForward.fog[28].dispatcher internalJobs 1625519
scalar FogSequentialForward.fog[28].dispatcher externalJobs 6426561
scalar FogSequentialForward.fog[28].dispatcher remoteJobs 6429099
scalar FogSequentialForward.fog[28].dispatcher probeQueries 0
scalar FogSequentialForward.fog[28].dispatcher probeAnswers 0
scalar FogSequentialForward.fog[28].dispatcher droppedJobsSLA 199988
scalar FogSequentialForward.fog[28].dispatcher jobs_class_1 8052080
scalar FogSequentialForward.fog[28].dispatcher remoteJobs_class_1 6429099
scalar FogSequentialForward.fog[28].dispatcher localJobs_class_1 1422993
scalar FogSequentialForward.fog[28].dispatcher droppedJobsSLA_class_1 199988
scalar FogSequentialForward.fog[28].server[0] rho 1
scalar FogSequentialForward.fog[28].server[0] congestionRatio 0
scalar FogSequentialForward.fog[28].server[0] totalJobs 1422993
scalar FogSequentialForward.fog[28].server[0] droppedJobsQueue 46834
scalar FogSequentialForward.fog[28].server[0] droppedJobsTimout 0
scalar FogSequentialForward.fog[28].server[0] droppedJobsSLA 909174
scalar FogSequentialForward.fog[28].server[0] droppedJobsTotal 956008
scalar FogSequentialForward.fog[29].dispatcher localJobs 1423966
scalar FogSequentialForward.fog[29].dispatcher internalJobs 1623730
scalar FogSequentialForward.fog[29].dispatcher externalJobs 6422548
scalar FogSequentialForward.fog[29].dispatcher remoteJobs 6423221
scalar FogSequentialForward.fog[29].dispatcher probeQueries 0
scalar FogSequentialForward.fog[29].dispatcher probeAnswers 0
scalar FogSequentialForward.fog[29].dispatcher droppedJobsSLA 199091
scalar FogSequentialForward.fog[29].dispatcher jobs_class_1 8046278
scalar FogSequentialForward.fog[29].dispatcher remoteJobs_class_1 6423221
scalar FogSequentialForward.fog[29].dispatcher localJobs_class_1 1423966
scalar FogSequentialForward.fog[29].dispatcher droppedJobsSLA_class_1 199091
scalar FogSequentialForward.fog[29].server[0] rho 1
scalar FogSequentialForward.fog[29].server[0] congestionRatio 0
scalar FogSequentialForward.fog[29].server[0] totalJobs 1423966
scalar FogSequentialForward.fog[29].server[0] droppedJobsQueue 46958
scalar FogSequentialForward.fog[29].server[0] droppedJobsTimout 0
scalar FogSequentialForward.fog[29].server[0] droppedJobsSLA 910268
scalar FogSequentialForward.fog[29].server[0] droppedJobsTotal 957226
scalar FogSequentialForward.fog[30].dispatcher localJobs 1424792
scalar FogSequentialForward.fog[30].dispatcher internalJobs 1621108
scalar FogSequentialForward.fog[30].dispatcher externalJobs 6424766
scalar FogSequentialForward.fog[30].dispatcher remoteJobs 6421525
scalar FogSequentialForward.fog[30].dispatcher probeQueries 0
scalar FogSequentialForward.fog[30].dispatcher probeAnswers 0
scalar FogSequentialForward.fog[30].dispatcher droppedJobsSLA 199557
scalar FogSequentialForward.fog[30].dispatcher jobs_class_1 8045874
scalar FogSequentialForward.fog[30].dispatcher remoteJobs_class_1 6421525
scalar FogSequentialForward.fog[30].dispatcher localJobs_class_1 1424792
scalar FogSequentialForward.fog[30].dispatcher droppedJobsSLA_class_1 199557
scalar FogSequentialForward.fog[30].server[0] rho 1
scalar FogSequentialForward.fog[30].server[0] congestionRatio 0
scalar FogSequentialForward.fog[30].server[0] totalJobs 1424792
scalar FogSequentialForward.fog[30].server[0] droppedJobsQueue 47211
scalar FogSequentialForward.fog[30].server[0] droppedJobsTimout 0
scalar FogSequentialForward.fog[30].server[0] droppedJobsSLA 910023
scalar FogSequentialForward.fog[30].server[0] droppedJobsTotal 957234
scalar FogSequentialForward.fog[31].dispatcher localJobs 1423369
scalar FogSequentialForward.fog[31].dispatcher internalJobs 1622034
scalar FogSequentialForward.fog[31].dispatcher externalJobs 6423776
scalar FogSequentialForward.fog[31].dispatcher remoteJobs 6422327
scalar FogSequentialForward.fog[31].dispatcher probeQueries 0
scalar FogSequentialForward.fog[31].dispatcher probeAnswers 0
scalar FogSequentialForward.fog[31].dispatcher droppedJobsSLA 200114
scalar FogSequentialForward.fog[31].dispatcher jobs_class_1 8045810
scalar FogSequentialForward.fog[31].dispatcher remoteJobs_class_1 6422327
scalar FogSequentialForward.fog[31].dispatcher localJobs_class_1 1423369
scalar FogSequentialForward.fog[31].dispatcher droppedJobsSLA_class_1 200114
scalar FogSequentialForward.fog[31].server[0] rho 1
scalar FogSequentialForward.fog[31].server[0] congestionRatio 0
scalar FogSequentialForward.fog[31].server[0] totalJobs 1423369
scalar FogSequentialForward.fog[31].server[0] droppedJobsQueue 46587
scalar FogSequentialForward.fog[31].server[0] droppedJobsTimout 0
scalar FogSequentialForward.fog[31].server[0] droppedJobsSLA 909588
scalar FogSequentialForward.fog[31].server[0] droppedJobsTotal 956175
scalar FogSequentialForward.fog[32].dispatcher localJobs 1423809
scalar FogSequentialForward.fog[32].dispatcher internalJobs 1622309
scalar FogSequentialForward.fog[32].dispatcher externalJobs 6426202
scalar FogSequentialForward.fog[32].dispatcher remoteJobs 6426159
scalar FogSequentialForward.fog[32].dispatcher probeQueries 0
scalar FogSequentialForward.fog[32].dispatcher probeAnswers 0
scalar FogSequentialForward.fog[32].dispatcher droppedJobsSLA 198543
scalar FogSequentialForward.fog[32].dispatcher jobs_class_1 8048511
scalar FogSequentialForward.fog[32].dispatcher remoteJobs_class_1 6426159
scalar FogSequentialForward.fog[32].dispatcher localJobs_class_1 1423809
scalar FogSequentialForward.fog[32].dispatcher droppedJobsSLA_class_1 198543
scalar FogSequentialForward.fog[32].server[0] rho 1
scalar FogSequentialForward.fog[32].server[0] congestionRatio 0
scalar FogSequentialForward.fog[32].server[0] totalJobs 1423809
scalar FogSequentialForward.fog[32].server[0] droppedJobsQueue 47092
scalar FogSequentialForward.fog[32].server[0] droppedJobsTimout 0
scalar FogSequentialForward.fog[32].server[0] droppedJobsSLA 910011
scalar FogSequentialForward.fog[32].server[0] droppedJobsTotal 957103
scalar FogSequentialForward.fog[33].dispatcher localJobs 1424172
scalar FogSequentialForward.fog[33].dispatcher internalJobs 1620949
scalar FogSequentialForward.fog[33].dispatcher externalJobs 6424735
scalar FogSequentialForward.fog[33].dispatcher remoteJobs 6422728
scalar FogSequentialForward.fog[33].dispatcher probeQueries 0
scalar FogSequentialForward.fog[33].dispatcher probeAnswers 0
scalar FogSequentialForward.fog[33].dispatcher droppedJobsSLA 198784
scalar FogSequentialForward.fog[33].dispatcher jobs_class_1 8045684
scalar FogSequentialForward.fog[33].dispatcher remoteJobs_class_1 6422728
scalar FogSequentialForward.fog[33].dispatcher localJobs_class_1 1424172
scalar FogSequentialForward.fog[33].dispatcher droppedJobsSLA_class_1 198784
scalar FogSequentialForward.fog[33].server[0] rho 1
scalar FogSequentialForward.fog[33].server[0] congestionRatio 0
scalar FogSequentialForward.fog[33].server[0] totalJobs 1424172
scalar FogSequentialForward.fog[33].server[0] droppedJobsQueue 47059
scalar FogSequentialForward.fog[33].server[0] droppedJobsTimout 0
scalar FogSequentialForward.fog[33].server[0] droppedJobsSLA 910296
scalar FogSequentialForward.fog[33].server[0] droppedJobsTotal 957355
scalar FogSequentialForward.fog[34].dispatcher localJobs 1424883
scalar FogSequentialForward.fog[34].dispatcher internalJobs 1626108
scalar FogSequentialForward.fog[34].dispatcher externalJobs 6428481
scalar FogSequentialForward.fog[34].dispatcher remoteJobs 6430759
scalar FogSequentialForward.fog[34].dispatcher probeQueries 0
scalar FogSequentialForward.fog[34].dispatcher probeAnswers 0
scalar FogSequentialForward.fog[34].dispatcher droppedJobsSLA 198947
scalar FogSequentialForward.fog[34].dispatcher jobs_class_1 8054589
scalar FogSequentialForward.fog[34].dispatcher remoteJobs_class_1 6430759
scalar FogSequentialForward.fog[34].dispatcher localJobs_class_1 1424883
scalar FogSequentialForward.fog[34].dispatcher droppedJobsSLA_class_1 198947
scalar FogSequentialForward.fog[34].server[0] rho 1
scalar FogSequentialForward.fog[34].server[0] congestionRatio 0
scalar FogSequentialForward.fog[34].server[0] totalJobs 1424883
scalar FogSequentialForward.fog[34].server[0] droppedJobsQueue 46987
scalar FogSequentialForward.fog[34].server[0] droppedJobsTimout 0
scalar FogSequentialForward.fog[34].server[0] droppedJobsSLA 910730
scalar FogSequentialForward.fog[34].server[0] droppedJobsTotal 957717
scalar FogSequentialForward.fog[35].dispatcher localJobs 1423860
scalar FogSequentialForward.fog[35].dispatcher internalJobs 1621518
scalar FogSequentialForward.fog[35].dispatcher externalJobs 6424089
scalar FogSequentialForward.fog[35].dispatcher remoteJobs 6422758
scalar FogSequentialForward.fog[35].dispatcher probeQueries 0
scalar FogSequentialForward.fog[35].dispatcher probeAnswers 0
scalar FogSequentialForward.fog[35].dispatcher droppedJobsSLA 198989
scalar FogSequentialForward.fog[35].dispatcher jobs_class_1 8045607
scalar FogSequentialForward.fog[35].dispatcher remoteJobs_class_1 6422758
scalar FogSequentialForward.fog[35].dispatcher localJobs_class_1 1423860
scalar FogSequentialForward.fog[35].dispatcher droppedJobsSLA_class_1 198989
scalar FogSequentialForward.fog[35].server[0] rho 1
scalar FogSequentialForward.fog[35].server[0] congestionRatio 0
scalar FogSequentialForward.fog[35].server[0] totalJobs 1423860
scalar FogSequentialForward.fog[35].server[0] droppedJobsQueue 46793
scalar FogSequentialForward.fog[35].server[0] droppedJobsTimout 0
scalar FogSequentialForward.fog[35].server[0] droppedJobsSLA 909961
scalar FogSequentialForward.fog[35].server[0] droppedJobsTotal 956754
scalar FogSequentialForward.fog[36].dispatcher localJobs 1424002
scalar FogSequentialForward.fog[36].dispatcher internalJobs 1621864
scalar FogSequentialForward.fog[36].dispatcher externalJobs 6424151
scalar FogSequentialForward.fog[36].dispatcher remoteJobs 6423710
scalar FogSequentialForward.fog[36].dispatcher probeQueries 0
scalar FogSequentialForward.fog[36].dispatcher probeAnswers 0
scalar FogSequentialForward.fog[36].dispatcher droppedJobsSLA 198303
scalar FogSequentialForward.fog[36].dispatcher jobs_class_1 8046015
scalar FogSequentialForward.fog[36].dispatcher remoteJobs_class_1 6423710
scalar FogSequentialForward.fog[36].dispatcher localJobs_class_1 1424002
scalar FogSequentialForward.fog[36].dispatcher droppedJobsSLA_class_1 198303
scalar FogSequentialForward.fog[36].server[0] rho 1
scalar FogSequentialForward.fog[36].server[0] congestionRatio 0
scalar FogSequentialForward.fog[36].server[0] totalJobs 1424002
scalar FogSequentialForward.fog[36].server[0] droppedJobsQueue 46976
scalar FogSequentialForward.fog[36].server[0] droppedJobsTimout 0
scalar FogSequentialForward.fog[36].server[0] droppedJobsSLA 910508
scalar FogSequentialForward.fog[36].server[0] droppedJobsTotal 957484
scalar FogSequentialForward.fog[37].dispatcher localJobs 1424581
scalar FogSequentialForward.fog[37].dispatcher internalJobs 1620392
scalar FogSequentialForward.fog[37].dispatcher externalJobs 6427521
scalar FogSequentialForward.fog[37].dispatcher remoteJobs 6424592
scalar FogSequentialForward.fog[37].dispatcher probeQueries 0
scalar FogSequentialForward.fog[37].dispatcher probeAnswers 0
scalar FogSequentialForward.fog[37].dispatcher droppedJobsSLA 198740
scalar FogSequentialForward.fog[37].dispatcher jobs_class_1 8047913
scalar FogSequentialForward.fog[37].dispatcher remoteJobs_class_1 6424592
scalar FogSequentialForward.fog[37].dispatcher localJobs_class_1 1424581
scalar FogSequentialForward.fog[37].dispatcher droppedJobsSLA_class_1 198740
scalar FogSequentialForward.fog[37].server[0] rho 1
scalar FogSequentialForward.fog[37].server[0] congestionRatio 0
scalar FogSequentialForward.fog[37].server[0] totalJobs 1424581
scalar FogSequentialForward.fog[37].server[0] droppedJobsQueue 47068
scalar FogSequentialForward.fog[37].server[0] droppedJobsTimout 0
scalar FogSequentialForward.fog[37].server[0] droppedJobsSLA 910446
scalar FogSequentialForward.fog[37].server[0] droppedJobsTotal 957514
scalar FogSequentialForward.fog[38].dispatcher localJobs 1424439
scalar FogSequentialForward.fog[38].dispatcher internalJobs 1623618
scalar FogSequentialForward.fog[38].dispatcher externalJobs 6423518
scalar FogSequentialForward.fog[38].dispatcher remoteJobs 6424044
scalar FogSequentialForward.fog[38].dispatcher probeQueries 0
scalar FogSequentialForward.fog[38].dispatcher probeAnswers 0
scalar FogSequentialForward.fog[38].dispatcher droppedJobsSLA 198653
scalar FogSequentialForward.fog[38].dispatcher jobs_class_1 8047136
scalar FogSequentialForward.fog[38].dispatcher remoteJobs_class_1 6424044
scalar FogSequentialForward.fog[38].dispatcher localJobs_class_1 1424439
scalar FogSequentialForward.fog[38].dispatcher droppedJobsSLA_class_1 198653
scalar FogSequentialForward.fog[38].server[0] rho 1
scalar FogSequentialForward.fog[38].server[0] congestionRatio 0
scalar FogSequentialForward.fog[38].server[0] totalJobs 1424439
scalar FogSequentialForward.fog[38].server[0] droppedJobsQueue 47025
scalar FogSequentialForward.fog[38].server[0] droppedJobsTimout 0
scalar FogSequentialForward.fog[38].server[0] droppedJobsSLA 910340
scalar FogSequentialForward.fog[38].server[0] droppedJobsTotal 957365
scalar FogSequentialForward.fog[39].dispatcher localJobs 1424314
scalar FogSequentialForward.fog[39].dispatcher internalJobs 1624661
scalar FogSequentialForward.fog[39].dispatcher externalJobs 6423003
scalar FogSequentialForward.fog[39].dispatcher remoteJobs 6424459
scalar FogSequentialForward.fog[39].dispatcher probeQueries 0
scalar FogSequentialForward.fog[39].dispatcher probeAnswers 0
scalar FogSequentialForward.fog[39].dispatcher droppedJobsSLA 198891
scalar FogSequentialForward.fog[39].dispatcher jobs_class_1 8047664
scalar FogSequentialForward.fog[39].dispatcher remoteJobs_class_1 6424459
scalar FogSequentialForward.fog[39].dispatcher localJobs_class_1 1424314
scalar FogSequentialForward.fog[39].dispatcher droppedJobsSLA_class_1 198891
scalar FogSequentialForward.fog[39].server[0] rho 1
scalar FogSequentialForward.fog[39].server[0] congestionRatio 0
scalar FogSequentialForward.fog[39].server[0] totalJobs 1424314
scalar FogSequentialForward.fog[39].server[0] droppedJobsQueue 46823
scalar FogSequentialForward.fog[39].server[0] droppedJobsTimout 0
scalar FogSequentialForward.fog[39].server[0] droppedJobsSLA 910494
scalar FogSequentialForward.fog[39].server[0] droppedJobsTotal 957317
scalar FogSequentialForward.fog[40].dispatcher localJobs 1423591
scalar FogSequentialForward.fog[40].dispatcher internalJobs 1624297
scalar FogSequentialForward.fog[40].dispatcher externalJobs 6422220
scalar FogSequentialForward.fog[40].dispatcher remoteJobs 6423947
scalar FogSequentialForward.fog[40].dispatcher probeQueries 0
scalar FogSequentialForward.fog[40].dispatcher probeAnswers 0
scalar FogSequentialForward.fog[40].dispatcher droppedJobsSLA 198979
scalar FogSequentialForward.fog[40].dispatcher jobs_class_1 8046517
scalar FogSequentialForward.fog[40].dispatcher remoteJobs_class_1 6423947
scalar FogSequentialForward.fog[40].dispatcher localJobs_class_1 1423591
scalar FogSequentialForward.fog[40].dispatcher droppedJobsSLA_class_1 198979
scalar FogSequentialForward.fog[40].server[0] rho 1
scalar FogSequentialForward.fog[40].server[0] congestionRatio 0
scalar FogSequentialForward.fog[40].server[0] totalJobs 1423591
scalar FogSequentialForward.fog[40].server[0] droppedJobsQueue 46944
scalar FogSequentialForward.fog[40].server[0] droppedJobsTimout 0
scalar FogSequentialForward.fog[40].server[0] droppedJobsSLA 909152
scalar FogSequentialForward.fog[40].server[0] droppedJobsTotal 956096
scalar FogSequentialForward.fog[41].dispatcher localJobs 1424381
scalar FogSequentialForward.fog[41].dispatcher internalJobs 1624829
scalar FogSequentialForward.fog[41].dispatcher externalJobs 6423139
scalar FogSequentialForward.fog[41].dispatcher remoteJobs 6424349
scalar FogSequentialForward.fog[41].dispatcher probeQueries 0
scalar FogSequentialForward.fog[41].dispatcher probeAnswers 0
scalar FogSequentialForward.fog[41].dispatcher droppedJobsSLA 199238
scalar FogSequentialForward.fog[41].dispatcher jobs_class_1 8047968
scalar FogSequentialForward.fog[41].dispatcher remoteJobs_class_1 6424349
scalar FogSequentialForward.fog[41].dispatcher localJobs_class_1 1424381
scalar FogSequentialForward.fog[41].dispatcher droppedJobsSLA_class_1 199238
scalar FogSequentialForward.fog[41].server[0] rho 1
scalar FogSequentialForward.fog[41].server[0] congestionRatio 0
scalar FogSequentialForward.fog[41].server[0] totalJobs 1424381
scalar FogSequentialForward.fog[41].server[0] droppedJobsQueue 47156
scalar FogSequentialForward.fog[41].server[0] droppedJobsTimout 0
scalar FogSequentialForward.fog[41].server[0] droppedJobsSLA 910346
scalar FogSequentialForward.fog[41].server[0] droppedJobsTotal 957502
scalar FogSequentialForward.fog[42].dispatcher localJobs 1424258
scalar FogSequentialForward.fog[42].dispatcher internalJobs 1624932
scalar FogSequentialForward.fog[42].dispatcher externalJobs 6425802
scalar FogSequentialForward.fog[42].dispatcher remoteJobs 6427099
scalar FogSequentialForward.fog[42].dispatcher probeQueries 0
scalar FogSequentialForward.fog[42].dispatcher probeAnswers 0
scalar FogSequentialForward.fog[42].dispatcher droppedJobsSLA 199377
scalar FogSequentialForward.fog[42].dispatcher jobs_class_1 8050734
scalar FogSequentialForward.fog[42].dispatcher remoteJobs_class_1 6427099
scalar FogSequentialForward.fog[42].dispatcher localJobs_class_1 1424258
scalar FogSequentialForward.fog[42].dispatcher droppedJobsSLA_class_1 199377
scalar FogSequentialForward.fog[42].server[0] rho 1
scalar FogSequentialForward.fog[42].server[0] congestionRatio 0
scalar FogSequentialForward.fog[42].server[0] totalJobs 1424258
scalar FogSequentialForward.fog[42].server[0] droppedJobsQueue 47041
scalar FogSequentialForward.fog[42].server[0] droppedJobsTimout 0
scalar FogSequentialForward.fog[42].server[0] droppedJobsSLA 910100
scalar FogSequentialForward.fog[42].server[0] droppedJobsTotal 957141
scalar FogSequentialForward.fog[43].dispatcher localJobs 1423141
scalar FogSequentialForward.fog[43].dispatcher internalJobs 1623291
scalar FogSequentialForward.fog[43].dispatcher externalJobs 6424384
scalar FogSequentialForward.fog[43].dispatcher remoteJobs 6425370
scalar FogSequentialForward.fog[43].dispatcher probeQueries 0
scalar FogSequentialForward.fog[43].dispatcher probeAnswers 0
scalar FogSequentialForward.fog[43].dispatcher droppedJobsSLA 199164
scalar FogSequentialForward.fog[43].dispatcher jobs_class_1 8047675
scalar FogSequentialForward.fog[43].dispatcher remoteJobs_class_1 6425370
scalar FogSequentialForward.fog[43].dispatcher localJobs_class_1 1423141
scalar FogSequentialForward.fog[43].dispatcher droppedJobsSLA_class_1 199164
scalar FogSequentialForward.fog[43].server[0] rho 1
scalar FogSequentialForward.fog[43].server[0] congestionRatio 0
scalar FogSequentialForward.fog[43].server[0] totalJobs 1423141
scalar FogSequentialForward.fog[43].server[0] droppedJobsQueue 46641
scalar FogSequentialForward.fog[43].server[0] droppedJobsTimout 0
scalar FogSequentialForward.fog[43].server[0] droppedJobsSLA 909800
scalar FogSequentialForward.fog[43].server[0] droppedJobsTotal 956441
scalar FogSequentialForward.fog[44].dispatcher localJobs 1424465
scalar FogSequentialForward.fog[44].dispatcher internalJobs 1625471
scalar FogSequentialForward.fog[44].dispatcher externalJobs 6426107
scalar FogSequentialForward.fog[44].dispatcher remoteJobs 6427208
scalar FogSequentialForward.fog[44].dispatcher probeQueries 0
scalar FogSequentialForward.fog[44].dispatcher probeAnswers 0
scalar FogSequentialForward.fog[44].dispatcher droppedJobsSLA 199905
scalar FogSequentialForward.fog[44].dispatcher jobs_class_1 8051578
scalar FogSequentialForward.fog[44].dispatcher remoteJobs_class_1 6427208
scalar FogSequentialForward.fog[44].dispatcher localJobs_class_1 1424465
scalar FogSequentialForward.fog[44].dispatcher droppedJobsSLA_class_1 199905
scalar FogSequentialForward.fog[44].server[0] rho 1
scalar FogSequentialForward.fog[44].server[0] congestionRatio 0
scalar FogSequentialForward.fog[44].server[0] totalJobs 1424465
scalar FogSequentialForward.fog[44].server[0] droppedJobsQueue 46940
scalar FogSequentialForward.fog[44].server[0] droppedJobsTimout 0
scalar FogSequentialForward.fog[44].server[0] droppedJobsSLA 910362
scalar FogSequentialForward.fog[44].server[0] droppedJobsTotal 957302
scalar FogSequentialForward.fog[45].dispatcher localJobs 1423445
scalar FogSequentialForward.fog[45].dispatcher internalJobs 1623092
scalar FogSequentialForward.fog[45].dispatcher externalJobs 6426320
scalar FogSequentialForward.fog[45].dispatcher remoteJobs 6426251
scalar FogSequentialForward.fog[45].dispatcher probeQueries 0
scalar FogSequentialForward.fog[45].dispatcher probeAnswers 0
scalar FogSequentialForward.fog[45].dispatcher droppedJobsSLA 199716
scalar FogSequentialForward.fog[45].dispatcher jobs_class_1 8049412
scalar FogSequentialForward.fog[45].dispatcher remoteJobs_class_1 6426251
scalar FogSequentialForward.fog[45].dispatcher localJobs_class_1 1423445
scalar FogSequentialForward.fog[45].dispatcher droppedJobsSLA_class_1 199716
scalar FogSequentialForward.fog[45].server[0] rho 1
scalar FogSequentialForward.fog[45].server[0] congestionRatio 0
scalar FogSequentialForward.fog[45].server[0] totalJobs 1423445
scalar FogSequentialForward.fog[45].server[0] droppedJobsQueue 46824
scalar FogSequentialForward.fog[45].server[0] droppedJobsTimout 0
scalar FogSequentialForward.fog[45].server[0] droppedJobsSLA 909602
scalar FogSequentialForward.fog[45].server[0] droppedJobsTotal 956426
scalar FogSequentialForward.fog[46].dispatcher localJobs 1423692
scalar FogSequentialForward.fog[46].dispatcher internalJobs 1624241
scalar FogSequentialForward.fog[46].dispatcher externalJobs 6421492
scalar FogSequentialForward.fog[46].dispatcher remoteJobs 6423291
scalar FogSequentialForward.fog[46].dispatcher probeQueries 0
scalar FogSequentialForward.fog[46].dispatcher probeAnswers 0
scalar FogSequentialForward.fog[46].dispatcher droppedJobsSLA 198750
scalar FogSequentialForward.fog[46].dispatcher jobs_class_1 8045733
scalar FogSequentialForward.fog[46].dispatcher remoteJobs_class_1 6423291
scalar FogSequentialForward.fog[46].dispatcher localJobs_class_1 1423692
scalar FogSequentialForward.fog[46].dispatcher droppedJobsSLA_class_1 198750
scalar FogSequentialForward.fog[46].server[0] rho 1
scalar FogSequentialForward.fog[46].server[0] congestionRatio 0
scalar FogSequentialForward.fog[46].server[0] totalJobs 1423692
scalar FogSequentialForward.fog[46].server[0] droppedJobsQueue 46886
scalar FogSequentialForward.fog[46].server[0] droppedJobsTimout 0
scalar FogSequentialForward.fog[46].server[0] droppedJobsSLA 910472
scalar FogSequentialForward.fog[46].server[0] droppedJobsTotal 957358
scalar FogSequentialForward.fog[47].dispatcher localJobs 1423840
scalar FogSequentialForward.fog[47].dispatcher internalJobs 1623016
scalar FogSequentialForward.fog[47].dispatcher externalJobs 6426126
scalar FogSequentialForward.fog[47].dispatcher remoteJobs 6426747
scalar FogSequentialForward.fog[47].dispatcher probeQueries 0
scalar FogSequentialForward.fog[47].dispatcher probeAnswers 0
scalar FogSequentialForward.fog[47].dispatcher droppedJobsSLA 198555
scalar FogSequentialForward.fog[47].dispatcher jobs_class_1 8049142
scalar FogSequentialForward.fog[47].dispatcher remoteJobs_class_1 6426747
scalar FogSequentialForward.fog[47].dispatcher localJobs_class_1 1423840
scalar FogSequentialForward.fog[47].dispatcher droppedJobsSLA_class_1 198555
scalar FogSequentialForward.fog[47].server[0] rho 1
scalar FogSequentialForward.fog[47].server[0] congestionRatio 0
scalar FogSequentialForward.fog[47].server[0] totalJobs 1423840
scalar FogSequentialForward.fog[47].server[0] droppedJobsQueue 46968
scalar FogSequentialForward.fog[47].server[0] droppedJobsTimout 0
scalar FogSequentialForward.fog[47].server[0] droppedJobsSLA 909212
scalar FogSequentialForward.fog[47].server[0] droppedJobsTotal 956180
scalar FogSequentialForward.fog[48].dispatcher localJobs 1423422
scalar FogSequentialForward.fog[48].dispatcher internalJobs 1624780
scalar FogSequentialForward.fog[48].dispatcher externalJobs 6422644
scalar FogSequentialForward.fog[48].dispatcher remoteJobs 6424995
scalar FogSequentialForward.fog[48].dispatcher probeQueries 0
scalar FogSequentialForward.fog[48].dispatcher probeAnswers 0
scalar FogSequentialForward.fog[48].dispatcher droppedJobsSLA 199007
scalar FogSequentialForward.fog[48].dispatcher jobs_class_1 8047424
scalar FogSequentialForward.fog[48].dispatcher remoteJobs_class_1 6424995
scalar FogSequentialForward.fog[48].dispatcher localJobs_class_1 1423422
scalar FogSequentialForward.fog[48].dispatcher droppedJobsSLA_class_1 199007
scalar FogSequentialForward.fog[48].server[0] rho 1
scalar FogSequentialForward.fog[48].server[0] congestionRatio 0
scalar FogSequentialForward.fog[48].server[0] totalJobs 1423422
scalar FogSequentialForward.fog[48].server[0] droppedJobsQueue 46812
scalar FogSequentialForward.fog[48].server[0] droppedJobsTimout 0
scalar FogSequentialForward.fog[48].server[0] droppedJobsSLA 909480
scalar FogSequentialForward.fog[48].server[0] droppedJobsTotal 956292
scalar FogSequentialForward.fog[49].dispatcher localJobs 1423699
scalar FogSequentialForward.fog[49].dispatcher internalJobs 1621748
scalar FogSequentialForward.fog[49].dispatcher externalJobs 6422457
scalar FogSequentialForward.fog[49].dispatcher remoteJobs 6421463
scalar FogSequentialForward.fog[49].dispatcher probeQueries 0
scalar FogSequentialForward.fog[49].dispatcher probeAnswers 0
scalar FogSequentialForward.fog[49].dispatcher droppedJobsSLA 199043
scalar FogSequentialForward.fog[49].dispatcher jobs_class_1 8044205
scalar FogSequentialForward.fog[49].dispatcher remoteJobs_class_1 6421463
scalar FogSequentialForward.fog[49].dispatcher localJobs_class_1 1423699
scalar FogSequentialForward.fog[49].dispatcher droppedJobsSLA_class_1 199043
scalar FogSequentialForward.fog[49].server[0] rho 1
scalar FogSequentialForward.fog[49].server[0] congestionRatio 0
scalar FogSequentialForward.fog[49].server[0] totalJobs 1423699
scalar FogSequentialForward.fog[49].server[0] droppedJobsQueue 46813
scalar FogSequentialForward.fog[49].server[0] droppedJobsTimout 0
scalar FogSequentialForward.fog[49].server[0] droppedJobsSLA 910241
scalar FogSequentialForward.fog[49].server[0] droppedJobsTotal 957054
scalar FogSequentialForward.fog[50].dispatcher localJobs 1423444
scalar FogSequentialForward.fog[50].dispatcher internalJobs 1623139
scalar FogSequentialForward.fog[50].dispatcher externalJobs 6423389
scalar FogSequentialForward.fog[50].dispatcher remoteJobs 6423697
scalar FogSequentialForward.fog[50].dispatcher probeQueries 0
scalar FogSequentialForward.fog[50].dispatcher probeAnswers 0
scalar FogSequentialForward.fog[50].dispatcher droppedJobsSLA 199387
scalar FogSequentialForward.fog[50].dispatcher jobs_class_1 8046528
scalar FogSequentialForward.fog[50].dispatcher remoteJobs_class_1 6423697
scalar FogSequentialForward.fog[50].dispatcher localJobs_class_1 1423444
scalar FogSequentialForward.fog[50].dispatcher droppedJobsSLA_class_1 199387
scalar FogSequentialForward.fog[50].server[0] rho 1
scalar FogSequentialForward.fog[50].server[0] congestionRatio 0
scalar FogSequentialForward.fog[50].server[0] totalJobs 1423444
scalar FogSequentialForward.fog[50].server[0] droppedJobsQueue 46577
scalar FogSequentialForward.fog[50].server[0] droppedJobsTimout 0
scalar FogSequentialForward.fog[50].server[0] droppedJobsSLA 909900
scalar FogSequentialForward.fog[50].server[0] droppedJobsTotal 956477
scalar FogSequentialForward.fog[51].dispatcher localJobs 1423376
scalar FogSequentialForward.fog[51].dispatcher internalJobs 1620261
scalar FogSequentialForward.fog[51].dispatcher externalJobs 6424168
scalar FogSequentialForward.fog[51].dispatcher remoteJobs 6422318
scalar FogSequentialForward.fog[51].dispatcher probeQueries 0
scalar FogSequentialForward.fog[51].dispatcher probeAnswers 0
scalar FogSequentialForward.fog[51].dispatcher droppedJobsSLA 198735
scalar FogSequentialForward.fog[51].dispatcher jobs_class_1 8044429
scalar FogSequentialForward.fog[51].dispatcher remoteJobs_class_1 6422318
scalar FogSequentialForward.fog[51].dispatcher localJobs_class_1 1423376
scalar FogSequentialForward.fog[51].dispatcher droppedJobsSLA_class_1 198735
scalar FogSequentialForward.fog[51].server[0] rho 1
scalar FogSequentialForward.fog[51].server[0] congestionRatio 0
scalar FogSequentialForward.fog[51].server[0] totalJobs 1423376
scalar FogSequentialForward.fog[51].server[0] droppedJobsQueue 46994
scalar FogSequentialForward.fog[51].server[0] droppedJobsTimout 0
scalar FogSequentialForward.fog[51].server[0] droppedJobsSLA 909824
scalar FogSequentialForward.fog[51].server[0] droppedJobsTotal 956818
scalar FogSequentialForward.fog[52].dispatcher localJobs 1423681
scalar FogSequentialForward.fog[52].dispatcher internalJobs 1620984
scalar FogSequentialForward.fog[52].dispatcher externalJobs 6420086
scalar FogSequentialForward.fog[52].dispatcher remoteJobs 6418086
scalar FogSequentialForward.fog[52].dispatcher probeQueries 0
scalar FogSequentialForward.fog[52].dispatcher probeAnswers 0
scalar FogSequentialForward.fog[52].dispatcher droppedJobsSLA 199303
scalar FogSequentialForward.fog[52].dispatcher jobs_class_1 8041070
scalar FogSequentialForward.fog[52].dispatcher remoteJobs_class_1 6418086
scalar FogSequentialForward.fog[52].dispatcher localJobs_class_1 1423681
scalar FogSequentialForward.fog[52].dispatcher droppedJobsSLA_class_1 199303
scalar FogSequentialForward.fog[52].server[0] rho 1
scalar FogSequentialForward.fog[52].server[0] congestionRatio 0
scalar FogSequentialForward.fog[52].server[0] totalJobs 1423681
scalar FogSequentialForward.fog[52].server[0] droppedJobsQueue 46827
scalar FogSequentialForward.fog[52].server[0] droppedJobsTimout 0
scalar FogSequentialForward.fog[52].server[0] droppedJobsSLA 909881
scalar FogSequentialForward.fog[52].server[0] droppedJobsTotal 956708
scalar FogSequentialForward.fog[53].dispatcher localJobs 1423611
scalar FogSequentialForward.fog[53].dispatcher internalJobs 1622532
scalar FogSequentialForward.fog[53].dispatcher externalJobs 6422926
scalar FogSequentialForward.fog[53].dispatcher remoteJobs 6422767
scalar FogSequentialForward.fog[53].dispatcher probeQueries 0
scalar FogSequentialForward.fog[53].dispatcher probeAnswers 0
scalar FogSequentialForward.fog[53].dispatcher droppedJobsSLA 199080
scalar FogSequentialForward.fog[53].dispatcher jobs_class_1 8045458
scalar FogSequentialForward.fog[53].dispatcher remoteJobs_class_1 6422767
scalar FogSequentialForward.fog[53].dispatcher localJobs_class_1 1423611
scalar FogSequentialForward.fog[53].dispatcher droppedJobsSLA_class_1 199080
scalar FogSequentialForward.fog[53].server[0] rho 1
scalar FogSequentialForward.fog[53].server[0] congestionRatio 0
scalar FogSequentialForward.fog[53].server[0] totalJobs 1423611
scalar FogSequentialForward.fog[53].server[0] droppedJobsQueue 46814
scalar FogSequentialForward.fog[53].server[0] droppedJobsTimout 0
scalar FogSequentialForward.fog[53].server[0] droppedJobsSLA 909954
scalar FogSequentialForward.fog[53].server[0] droppedJobsTotal 956768
scalar FogSequentialForward.fog[54].dispatcher localJobs 1422711
scalar FogSequentialForward.fog[54].dispatcher internalJobs 1622441
scalar FogSequentialForward.fog[54].dispatcher externalJobs 6424161
scalar FogSequentialForward.fog[54].dispatcher remoteJobs 6424298
scalar FogSequentialForward.fog[54].dispatcher probeQueries 0
scalar FogSequentialForward.fog[54].dispatcher probeAnswers 0
scalar FogSequentialForward.fog[54].dispatcher droppedJobsSLA 199593
scalar FogSequentialForward.fog[54].dispatcher jobs_class_1 8046602
scalar FogSequentialForward.fog[54].dispatcher remoteJobs_class_1 6424298
scalar FogSequentialForward.fog[54].dispatcher localJobs_class_1 1422711
scalar FogSequentialForward.fog[54].dispatcher droppedJobsSLA_class_1 199593
scalar FogSequentialForward.fog[54].server[0] rho 1
scalar FogSequentialForward.fog[54].server[0] congestionRatio 0
scalar FogSequentialForward.fog[54].server[0] totalJobs 1422711
scalar FogSequentialForward.fog[54].server[0] droppedJobsQueue 46699
scalar FogSequentialForward.fog[54].server[0] droppedJobsTimout 0
scalar FogSequentialForward.fog[54].server[0] droppedJobsSLA 909183
scalar FogSequentialForward.fog[54].server[0] droppedJobsTotal 955882
scalar FogSequentialForward.fog[55].dispatcher localJobs 1424374
scalar FogSequentialForward.fog[55].dispatcher internalJobs 1621382
scalar FogSequentialForward.fog[55].dispatcher externalJobs 6421377
scalar FogSequentialForward.fog[55].dispatcher remoteJobs 6419387
scalar FogSequentialForward.fog[55].dispatcher probeQueries 0
scalar FogSequentialForward.fog[55].dispatcher probeAnswers 0
scalar FogSequentialForward.fog[55].dispatcher droppedJobsSLA 198998
scalar FogSequentialForward.fog[55].dispatcher jobs_class_1 8042759
scalar FogSequentialForward.fog[55].dispatcher remoteJobs_class_1 6419387
scalar FogSequentialForward.fog[55].dispatcher localJobs_class_1 1424374
scalar FogSequentialForward.fog[55].dispatcher droppedJobsSLA_class_1 198998
scalar FogSequentialForward.fog[55].server[0] rho 1
scalar FogSequentialForward.fog[55].server[0] congestionRatio 0
scalar FogSequentialForward.fog[55].server[0] totalJobs 1424374
scalar FogSequentialForward.fog[55].server[0] droppedJobsQueue 46812
scalar FogSequentialForward.fog[55].server[0] droppedJobsTimout 0
scalar FogSequentialForward.fog[55].server[0] droppedJobsSLA 910379
scalar FogSequentialForward.fog[55].server[0] droppedJobsTotal 957191
scalar FogSequentialForward.fog[56].dispatcher localJobs 1424234
scalar FogSequentialForward.fog[56].dispatcher internalJobs 1624074
scalar FogSequentialForward.fog[56].dispatcher externalJobs 6425052
scalar FogSequentialForward.fog[56].dispatcher remoteJobs 6426104
scalar FogSequentialForward.fog[56].dispatcher probeQueries 0
scalar FogSequentialForward.fog[56].dispatcher probeAnswers 0
scalar FogSequentialForward.fog[56].dispatcher droppedJobsSLA 198788
scalar FogSequentialForward.fog[56].dispatcher jobs_class_1 8049126
scalar FogSequentialForward.fog[56].dispatcher remoteJobs_class_1 6426104
scalar FogSequentialForward.fog[56].dispatcher localJobs_class_1 1424234
scalar FogSequentialForward.fog[56].dispatcher droppedJobsSLA_class_1 198788
scalar FogSequentialForward.fog[56].server[0] rho 1
scalar FogSequentialForward.fog[56].server[0] congestionRatio 0
scalar FogSequentialForward.fog[56].server[0] totalJobs 1424234
scalar FogSequentialForward.fog[56].server[0] droppedJobsQueue 46930
scalar FogSequentialForward.fog[56].server[0] droppedJobsTimout 0
scalar FogSequentialForward.fog[56].server[0] droppedJobsSLA 910367
scalar FogSequentialForward.fog[56].server[0] droppedJobsTotal 957297
scalar FogSequentialForward.fog[57].dispatcher localJobs 1423946
scalar FogSequentialForward.fog[57].dispatcher internalJobs 1623563
scalar FogSequentialForward.fog[57].dispatcher externalJobs 6425107
scalar FogSequentialForward.fog[57].dispatcher remoteJobs 6425831
scalar FogSequentialForward.fog[57].dispatcher probeQueries 0
scalar FogSequentialForward.fog[57].dispatcher probeAnswers 0
scalar FogSequentialForward.fog[57].dispatcher droppedJobsSLA 198893
scalar FogSequentialForward.fog[57].dispatcher jobs_class_1 8048670
scalar FogSequentialForward.fog[57].dispatcher remoteJobs_class_1 6425831
scalar FogSequentialForward.fog[57].dispatcher localJobs_class_1 1423946
scalar FogSequentialForward.fog[57].dispatcher droppedJobsSLA_class_1 198893
scalar FogSequentialForward.fog[57].server[0] rho 1
scalar FogSequentialForward.fog[57].server[0] congestionRatio 0
scalar FogSequentialForward.fog[57].server[0] totalJobs 1423946
scalar FogSequentialForward.fog[57].server[0] droppedJobsQueue 46910
scalar FogSequentialForward.fog[57].server[0] droppedJobsTimout 0
scalar FogSequentialForward.fog[57].server[0] droppedJobsSLA 909178
scalar FogSequentialForward.fog[57].server[0] droppedJobsTotal 956088
scalar FogSequentialForward.fog[58].dispatcher localJobs 1424947
scalar FogSequentialForward.fog[58].dispatcher internalJobs 1620212
scalar FogSequentialForward.fog[58].dispatcher externalJobs 6422560
scalar FogSequentialForward.fog[58].dispatcher remoteJobs 6417721
scalar FogSequentialForward.fog[58].dispatcher probeQueries 0
scalar FogSequentialForward.fog[58].dispatcher probeAnswers 0
scalar FogSequentialForward.fog[58].dispatcher droppedJobsSLA 200104
scalar FogSequentialForward.fog[58].dispatcher jobs_class_1 8042772
scalar FogSequentialForward.fog[58].dispatcher remoteJobs_class_1 6417721
scalar FogSequentialForward.fog[58].dispatcher localJobs_class_1 1424947
scalar FogSequentialForward.fog[58].dispatcher droppedJobsSLA_class_1 200104
scalar FogSequentialForward.fog[58].server[0] rho 0.99999994039536
scalar FogSequentialForward.fog[58].server[0] congestionRatio 0
scalar FogSequentialForward.fog[58].server[0] totalJobs 1424947
scalar FogSequentialForward.fog[58].server[0] droppedJobsQueue 46701
scalar FogSequentialForward.fog[58].server[0] droppedJobsTimout 0
scalar FogSequentialForward.fog[58].server[0] droppedJobsSLA 911475
scalar FogSequentialForward.fog[58].server[0] droppedJobsTotal 958176
scalar FogSequentialForward.fog[59].dispatcher localJobs 1424091
scalar FogSequentialForward.fog[59].dispatcher internalJobs 1624245
scalar FogSequentialForward.fog[59].dispatcher externalJobs 6426516
scalar FogSequentialForward.fog[59].dispatcher remoteJobs 6427141
scalar FogSequentialForward.fog[59].dispatcher probeQueries 0
scalar FogSequentialForward.fog[59].dispatcher probeAnswers 0
scalar FogSequentialForward.fog[59].dispatcher droppedJobsSLA 199529
scalar FogSequentialForward.fog[59].dispatcher jobs_class_1 8050761
scalar FogSequentialForward.fog[59].dispatcher remoteJobs_class_1 6427141
scalar FogSequentialForward.fog[59].dispatcher localJobs_class_1 1424091
scalar FogSequentialForward.fog[59].dispatcher droppedJobsSLA_class_1 199529
scalar FogSequentialForward.fog[59].server[0] rho 1
scalar FogSequentialForward.fog[59].server[0] congestionRatio 0
scalar FogSequentialForward.fog[59].server[0] totalJobs 1424091
scalar FogSequentialForward.fog[59].server[0] droppedJobsQueue 47002
scalar FogSequentialForward.fog[59].server[0] droppedJobsTimout 0
scalar FogSequentialForward.fog[59].server[0] droppedJobsSLA 910259
scalar FogSequentialForward.fog[59].server[0] droppedJobsTotal 957261
scalar FogSequentialForward.fog[60].dispatcher localJobs 1423926
scalar FogSequentialForward.fog[60].dispatcher internalJobs 1622008
scalar FogSequentialForward.fog[60].dispatcher externalJobs 6426708
scalar FogSequentialForward.fog[60].dispatcher remoteJobs 6425523
scalar FogSequentialForward.fog[60].dispatcher probeQueries 0
scalar FogSequentialForward.fog[60].dispatcher probeAnswers 0
scalar FogSequentialForward.fog[60].dispatcher droppedJobsSLA 199267
scalar FogSequentialForward.fog[60].dispatcher jobs_class_1 8048716
scalar FogSequentialForward.fog[60].dispatcher remoteJobs_class_1 6425523
scalar FogSequentialForward.fog[60].dispatcher localJobs_class_1 1423926
scalar FogSequentialForward.fog[60].dispatcher droppedJobsSLA_class_1 199267
scalar FogSequentialForward.fog[60].server[0] rho 1
scalar FogSequentialForward.fog[60].server[0] congestionRatio 0
scalar FogSequentialForward.fog[60].server[0] totalJobs 1423926
scalar FogSequentialForward.fog[60].server[0] droppedJobsQueue 46904
scalar FogSequentialForward.fog[60].server[0] droppedJobsTimout 0
scalar FogSequentialForward.fog[60].server[0] droppedJobsSLA 909933
scalar FogSequentialForward.fog[60].server[0] droppedJobsTotal 956837
scalar FogSequentialForward.fog[61].dispatcher localJobs 1423422
scalar FogSequentialForward.fog[61].dispatcher internalJobs 1624126
scalar FogSequentialForward.fog[61].dispatcher externalJobs 6430524
scalar FogSequentialForward.fog[61].dispatcher remoteJobs 6431598
scalar FogSequentialForward.fog[61].dispatcher probeQueries 0
scalar FogSequentialForward.fog[61].dispatcher probeAnswers 0
scalar FogSequentialForward.fog[61].dispatcher droppedJobsSLA 199630
scalar FogSequentialForward.fog[61].dispatcher jobs_class_1 8054650
scalar FogSequentialForward.fog[61].dispatcher remoteJobs_class_1 6431598
scalar FogSequentialForward.fog[61].dispatcher localJobs_class_1 1423422
scalar FogSequentialForward.fog[61].dispatcher droppedJobsSLA_class_1 199630
scalar FogSequentialForward.fog[61].server[0] rho 1
scalar FogSequentialForward.fog[61].server[0] congestionRatio 0
scalar FogSequentialForward.fog[61].server[0] totalJobs 1423422
scalar FogSequentialForward.fog[61].server[0] droppedJobsQueue 46886
scalar FogSequentialForward.fog[61].server[0] droppedJobsTimout 0
scalar FogSequentialForward.fog[61].server[0] droppedJobsSLA 910071
scalar FogSequentialForward.fog[61].server[0] droppedJobsTotal 956957
scalar FogSequentialForward.fog[62].dispatcher localJobs 1424762
scalar FogSequentialForward.fog[62].dispatcher internalJobs 1623082
scalar FogSequentialForward.fog[62].dispatcher externalJobs 6430828
scalar FogSequentialForward.fog[62].dispatcher remoteJobs 6429795
scalar FogSequentialForward.fog[62].dispatcher probeQueries 0
scalar FogSequentialForward.fog[62].dispatcher probeAnswers 0
scalar FogSequentialForward.fog[62].dispatcher droppedJobsSLA 199353
scalar FogSequentialForward.fog[62].dispatcher jobs_class_1 8053910
scalar FogSequentialForward.fog[62].dispatcher remoteJobs_class_1 6429795
scalar FogSequentialForward.fog[62].dispatcher localJobs_class_1 1424762
scalar FogSequentialForward.fog[62].dispatcher droppedJobsSLA_class_1 199353
scalar FogSequentialForward.fog[62].server[0] rho 1
scalar FogSequentialForward.fog[62].server[0] congestionRatio 0
scalar FogSequentialForward.fog[62].server[0] totalJobs 1424762
scalar FogSequentialForward.fog[62].server[0] droppedJobsQueue 47278
scalar FogSequentialForward.fog[62].server[0] droppedJobsTimout 0
scalar FogSequentialForward.fog[62].server[0] droppedJobsSLA 910902
scalar FogSequentialForward.fog[62].server[0] droppedJobsTotal 958180
scalar FogSequentialForward.fog[63].dispatcher localJobs 1423984
scalar FogSequentialForward.fog[63].dispatcher internalJobs 1622317
scalar FogSequentialForward.fog[63].dispatcher externalJobs 6426102
scalar FogSequentialForward.fog[63].dispatcher remoteJobs 6424558
scalar FogSequentialForward.fog[63].dispatcher probeQueries 0
scalar FogSequentialForward.fog[63].dispatcher probeAnswers 0
scalar FogSequentialForward.fog[63].dispatcher droppedJobsSLA 199877
scalar FogSequentialForward.fog[63].dispatcher jobs_class_1 8048419
scalar FogSequentialForward.fog[63].dispatcher remoteJobs_class_1 6424558
scalar FogSequentialForward.fog[63].dispatcher localJobs_class_1 1423984
scalar FogSequentialForward.fog[63].dispatcher droppedJobsSLA_class_1 199877
scalar FogSequentialForward.fog[63].server[0] rho 1
scalar FogSequentialForward.fog[63].server[0] congestionRatio 0
scalar FogSequentialForward.fog[63].server[0] totalJobs 1423984
scalar FogSequentialForward.fog[63].server[0] droppedJobsQueue 47106
scalar FogSequentialForward.fog[63].server[0] droppedJobsTimout 0
scalar FogSequentialForward.fog[63].server[0] droppedJobsSLA 910469
scalar FogSequentialForward.fog[63].server[0] droppedJobsTotal 957575
scalar FogSequentialForward.fog[64].dispatcher localJobs 1424434
scalar FogSequentialForward.fog[64].dispatcher internalJobs 1623855
scalar FogSequentialForward.fog[64].dispatcher externalJobs 6428160
scalar FogSequentialForward.fog[64].dispatcher remoteJobs 6428488
scalar FogSequentialForward.fog[64].dispatcher probeQueries 0
scalar FogSequentialForward.fog[64].dispatcher probeAnswers 0
scalar FogSequentialForward.fog[64].dispatcher droppedJobsSLA 199093
scalar FogSequentialForward.fog[64].dispatcher jobs_class_1 8052015
scalar FogSequentialForward.fog[64].dispatcher remoteJobs_class_1 6428488
scalar FogSequentialForward.fog[64].dispatcher localJobs_class_1 1424434
scalar FogSequentialForward.fog[64].dispatcher droppedJobsSLA_class_1 199093
scalar FogSequentialForward.fog[64].server[0] rho 1
scalar FogSequentialForward.fog[64].server[0] congestionRatio 0
scalar FogSequentialForward.fog[64].server[0] totalJobs 1424434
scalar FogSequentialForward.fog[64].server[0] droppedJobsQueue 46958
scalar FogSequentialForward.fog[64].server[0] droppedJobsTimout 0
scalar FogSequentialForward.fog[64].server[0] droppedJobsSLA 909887
scalar FogSequentialForward.fog[64].server[0] droppedJobsTotal 956845
scalar FogSequentialForward.fog[65].dispatcher localJobs 1423078
scalar FogSequentialForward.fog[65].dispatcher internalJobs 1621431
scalar FogSequentialForward.fog[65].dispatcher externalJobs 6426077
scalar FogSequentialForward.fog[65].dispatcher remoteJobs 6425327
scalar FogSequentialForward.fog[65].dispatcher probeQueries 0
scalar FogSequentialForward.fog[65].dispatcher probeAnswers 0
scalar FogSequentialForward.fog[65].dispatcher droppedJobsSLA 199103
scalar FogSequentialForward.fog[65].dispatcher jobs_class_1 8047508
[...]
scalar FogSequentialForward.fog[84].dispatcher jobs_class_1 8049225
scalar FogSequentialForward.fog[84].dispatcher remoteJobs_class_1 6425153
scalar FogSequentialForward.fog[84].dispatcher localJobs_class_1 1424466
scalar FogSequentialForward.fog[84].dispatcher droppedJobsSLA_class_1 199606
scalar FogSequentialForward.fog[84].server[0] rho 1
scalar FogSequentialForward.fog[84].server[0] congestionRatio 0
scalar FogSequentialForward.fog[84].server[0] totalJobs 1424466
scalar FogSequentialForward.fog[84].server[0] droppedJobsQueue 47064
scalar FogSequentialForward.fog[84].server[0] droppedJobsTimout 0
scalar FogSequentialForward.fog[84].server[0] droppedJobsSLA 909871
scalar FogSequentialForward.fog[84].server[0] droppedJobsTotal 956935
scalar FogSequentialForward.fog[85].dispatcher localJobs 1424542
scalar FogSequentialForward.fog[85].dispatcher internalJobs 1622567
scalar FogSequentialForward.fog[85].dispatcher externalJobs 6423075
scalar FogSequentialForward.fog[85].dispatcher remoteJobs 6421880
scalar FogSequentialForward.fog[85].dispatcher probeQueries 0
scalar FogSequentialForward.fog[85].dispatcher probeAnswers 0
scalar FogSequentialForward.fog[85].dispatcher droppedJobsSLA 199220
scalar FogSequentialForward.fog[85].dispatcher jobs_class_1 8045642
scalar FogSequentialForward.fog[85].dispatcher remoteJobs_class_1 6421880
scalar FogSequentialForward.fog[85].dispatcher localJobs_class_1 1424542
scalar FogSequentialForward.fog[85].dispatcher droppedJobsSLA_class_1 199220
scalar FogSequentialForward.fog[85].server[0] rho 1
scalar FogSequentialForward.fog[85].server[0] congestionRatio 0
scalar FogSequentialForward.fog[85].server[0] totalJobs 1424542
scalar FogSequentialForward.fog[85].server[0] droppedJobsQueue 46887
scalar FogSequentialForward.fog[85].server[0] droppedJobsTimout 0
scalar FogSequentialForward.fog[85].server[0] droppedJobsSLA 910223
scalar FogSequentialForward.fog[85].server[0] droppedJobsTotal 957110
scalar FogSequentialForward.fog[86].dispatcher localJobs 1423815
scalar FogSequentialForward.fog[86].dispatcher internalJobs 1624345
scalar FogSequentialForward.fog[86].dispatcher externalJobs 6432159
scalar FogSequentialForward.fog[86].dispatcher remoteJobs 6432712
scalar FogSequentialForward.fog[86].dispatcher probeQueries 0
scalar FogSequentialForward.fog[86].dispatcher probeAnswers 0
scalar FogSequentialForward.fog[86].dispatcher droppedJobsSLA 199977
scalar FogSequentialForward.fog[86].dispatcher jobs_class_1 8056504
scalar FogSequentialForward.fog[86].dispatcher remoteJobs_class_1 6432712
scalar FogSequentialForward.fog[86].dispatcher localJobs_class_1 1423815
scalar FogSequentialForward.fog[86].dispatcher droppedJobsSLA_class_1 199977
scalar FogSequentialForward.fog[86].server[0] rho 1
scalar FogSequentialForward.fog[86].server[0] congestionRatio 0
scalar FogSequentialForward.fog[86].server[0] totalJobs 1423815
scalar FogSequentialForward.fog[86].server[0] droppedJobsQueue 46815
scalar FogSequentialForward.fog[86].server[0] droppedJobsTimout 0
scalar FogSequentialForward.fog[86].server[0] droppedJobsSLA 909389
scalar FogSequentialForward.fog[86].server[0] droppedJobsTotal 956204
scalar FogSequentialForward.fog[87].dispatcher localJobs 1423230
scalar FogSequentialForward.fog[87].dispatcher internalJobs 1620507
scalar FogSequentialForward.fog[87].dispatcher externalJobs 6424981
scalar FogSequentialForward.fog[87].dispatcher remoteJobs 6422833
scalar FogSequentialForward.fog[87].dispatcher probeQueries 0
scalar FogSequentialForward.fog[87].dispatcher probeAnswers 0
scalar FogSequentialForward.fog[87].dispatcher droppedJobsSLA 199425
scalar FogSequentialForward.fog[87].dispatcher jobs_class_1 8045488
scalar FogSequentialForward.fog[87].dispatcher remoteJobs_class_1 6422833
scalar FogSequentialForward.fog[87].dispatcher localJobs_class_1 1423230
scalar FogSequentialForward.fog[87].dispatcher droppedJobsSLA_class_1 199425
scalar FogSequentialForward.fog[87].server[0] rho 1
scalar FogSequentialForward.fog[87].server[0] congestionRatio 0
scalar FogSequentialForward.fog[87].server[0] totalJobs 1423230
scalar FogSequentialForward.fog[87].server[0] droppedJobsQueue 46769
scalar FogSequentialForward.fog[87].server[0] droppedJobsTimout 0
scalar FogSequentialForward.fog[87].server[0] droppedJobsSLA 910326
scalar FogSequentialForward.fog[87].server[0] droppedJobsTotal 957095
scalar FogSequentialForward.fog[88].dispatcher localJobs 1423911
scalar FogSequentialForward.fog[88].dispatcher internalJobs 1622440
scalar FogSequentialForward.fog[88].dispatcher externalJobs 6428489
scalar FogSequentialForward.fog[88].dispatcher remoteJobs 6427396
scalar FogSequentialForward.fog[88].dispatcher probeQueries 0
scalar FogSequentialForward.fog[88].dispatcher probeAnswers 0
scalar FogSequentialForward.fog[88].dispatcher droppedJobsSLA 199622
scalar FogSequentialForward.fog[88].dispatcher jobs_class_1 8050929
scalar FogSequentialForward.fog[88].dispatcher remoteJobs_class_1 6427396
scalar FogSequentialForward.fog[88].dispatcher localJobs_class_1 1423911
scalar FogSequentialForward.fog[88].dispatcher droppedJobsSLA_class_1 199622
scalar FogSequentialForward.fog[88].server[0] rho 0.99999964237213
scalar FogSequentialForward.fog[88].server[0] congestionRatio 0
scalar FogSequentialForward.fog[88].server[0] totalJobs 1423911
scalar FogSequentialForward.fog[88].server[0] droppedJobsQueue 46978
scalar FogSequentialForward.fog[88].server[0] droppedJobsTimout 0
scalar FogSequentialForward.fog[88].server[0] droppedJobsSLA 909828
scalar FogSequentialForward.fog[88].server[0] droppedJobsTotal 956806
scalar FogSequentialForward.fog[89].dispatcher localJobs 1423413
scalar FogSequentialForward.fog[89].dispatcher internalJobs 1620817
scalar FogSequentialForward.fog[89].dispatcher externalJobs 6424517
scalar FogSequentialForward.fog[89].dispatcher remoteJobs 6422924
scalar FogSequentialForward.fog[89].dispatcher probeQueries 0
scalar FogSequentialForward.fog[89].dispatcher probeAnswers 0
scalar FogSequentialForward.fog[89].dispatcher droppedJobsSLA 198997
scalar FogSequentialForward.fog[89].dispatcher jobs_class_1 8045334
scalar FogSequentialForward.fog[89].dispatcher remoteJobs_class_1 6422924
scalar FogSequentialForward.fog[89].dispatcher localJobs_class_1 1423413
scalar FogSequentialForward.fog[89].dispatcher droppedJobsSLA_class_1 198997
scalar FogSequentialForward.fog[89].server[0] rho 0.99999868869781
scalar FogSequentialForward.fog[89].server[0] congestionRatio 0
scalar FogSequentialForward.fog[89].server[0] totalJobs 1423413
scalar FogSequentialForward.fog[89].server[0] droppedJobsQueue 46796
scalar FogSequentialForward.fog[89].server[0] droppedJobsTimout 0
scalar FogSequentialForward.fog[89].server[0] droppedJobsSLA 909993
scalar FogSequentialForward.fog[89].server[0] droppedJobsTotal 956789
scalar FogSequentialForward.fog[90].dispatcher localJobs 1424506
scalar FogSequentialForward.fog[90].dispatcher internalJobs 1626288
scalar FogSequentialForward.fog[90].dispatcher externalJobs 6427534
scalar FogSequentialForward.fog[90].dispatcher remoteJobs 6430107
scalar FogSequentialForward.fog[90].dispatcher probeQueries 0
scalar FogSequentialForward.fog[90].dispatcher probeAnswers 0
scalar FogSequentialForward.fog[90].dispatcher droppedJobsSLA 199209
scalar FogSequentialForward.fog[90].dispatcher jobs_class_1 8053822
scalar FogSequentialForward.fog[90].dispatcher remoteJobs_class_1 6430107
scalar FogSequentialForward.fog[90].dispatcher localJobs_class_1 1424506
scalar FogSequentialForward.fog[90].dispatcher droppedJobsSLA_class_1 199209
scalar FogSequentialForward.fog[90].server[0] rho 1
scalar FogSequentialForward.fog[90].server[0] congestionRatio 0
scalar FogSequentialForward.fog[90].server[0] totalJobs 1424506
scalar FogSequentialForward.fog[90].server[0] droppedJobsQueue 47066
scalar FogSequentialForward.fog[90].server[0] droppedJobsTimout 0
scalar FogSequentialForward.fog[90].server[0] droppedJobsSLA 910288
scalar FogSequentialForward.fog[90].server[0] droppedJobsTotal 957354
scalar FogSequentialForward.fog[91].dispatcher localJobs 1422250
scalar FogSequentialForward.fog[91].dispatcher internalJobs 1622741
scalar FogSequentialForward.fog[91].dispatcher externalJobs 6423765
scalar FogSequentialForward.fog[91].dispatcher remoteJobs 6423767
scalar FogSequentialForward.fog[91].dispatcher probeQueries 0
scalar FogSequentialForward.fog[91].dispatcher probeAnswers 0
scalar FogSequentialForward.fog[91].dispatcher droppedJobsSLA 200489
scalar FogSequentialForward.fog[91].dispatcher jobs_class_1 8046506
scalar FogSequentialForward.fog[91].dispatcher remoteJobs_class_1 6423767
scalar FogSequentialForward.fog[91].dispatcher localJobs_class_1 1422250
scalar FogSequentialForward.fog[91].dispatcher droppedJobsSLA_class_1 200489
scalar FogSequentialForward.fog[91].server[0] rho 1
scalar FogSequentialForward.fog[91].server[0] congestionRatio 0
scalar FogSequentialForward.fog[91].server[0] totalJobs 1422250
scalar FogSequentialForward.fog[91].server[0] droppedJobsQueue 46600
scalar FogSequentialForward.fog[91].server[0] droppedJobsTimout 0
scalar FogSequentialForward.fog[91].server[0] droppedJobsSLA 908865
scalar FogSequentialForward.fog[91].server[0] droppedJobsTotal 955465
scalar FogSequentialForward.fog[92].dispatcher localJobs 1424126
scalar FogSequentialForward.fog[92].dispatcher internalJobs 1622857
scalar FogSequentialForward.fog[92].dispatcher externalJobs 6421863
scalar FogSequentialForward.fog[92].dispatcher remoteJobs 6421457
scalar FogSequentialForward.fog[92].dispatcher probeQueries 0
scalar FogSequentialForward.fog[92].dispatcher probeAnswers 0
scalar FogSequentialForward.fog[92].dispatcher droppedJobsSLA 199137
scalar FogSequentialForward.fog[92].dispatcher jobs_class_1 8044720
scalar FogSequentialForward.fog[92].dispatcher remoteJobs_class_1 6421457
scalar FogSequentialForward.fog[92].dispatcher localJobs_class_1 1424126
scalar FogSequentialForward.fog[92].dispatcher droppedJobsSLA_class_1 199137
scalar FogSequentialForward.fog[92].server[0] rho 1
scalar FogSequentialForward.fog[92].server[0] congestionRatio 0
scalar FogSequentialForward.fog[92].server[0] totalJobs 1424126
scalar FogSequentialForward.fog[92].server[0] droppedJobsQueue 46954
scalar FogSequentialForward.fog[92].server[0] droppedJobsTimout 0
scalar FogSequentialForward.fog[92].server[0] droppedJobsSLA 910807
scalar FogSequentialForward.fog[92].server[0] droppedJobsTotal 957761
scalar FogSequentialForward.fog[93].dispatcher localJobs 1424002
scalar FogSequentialForward.fog[93].dispatcher internalJobs 1623145
scalar FogSequentialForward.fog[93].dispatcher externalJobs 6426723
scalar FogSequentialForward.fog[93].dispatcher remoteJobs 6426531
scalar FogSequentialForward.fog[93].dispatcher probeQueries 0
scalar FogSequentialForward.fog[93].dispatcher probeAnswers 0
scalar FogSequentialForward.fog[93].dispatcher droppedJobsSLA 199335
scalar FogSequentialForward.fog[93].dispatcher jobs_class_1 8049868
scalar FogSequentialForward.fog[93].dispatcher remoteJobs_class_1 6426531
scalar FogSequentialForward.fog[93].dispatcher localJobs_class_1 1424002
scalar FogSequentialForward.fog[93].dispatcher droppedJobsSLA_class_1 199335
scalar FogSequentialForward.fog[93].server[0] rho 1
scalar FogSequentialForward.fog[93].server[0] congestionRatio 0
scalar FogSequentialForward.fog[93].server[0] totalJobs 1424002
scalar FogSequentialForward.fog[93].server[0] droppedJobsQueue 46968
scalar FogSequentialForward.fog[93].server[0] droppedJobsTimout 0
scalar FogSequentialForward.fog[93].server[0] droppedJobsSLA 910367
scalar FogSequentialForward.fog[93].server[0] droppedJobsTotal 957335
scalar FogSequentialForward.fog[94].dispatcher localJobs 1423348
scalar FogSequentialForward.fog[94].dispatcher internalJobs 1624205
scalar FogSequentialForward.fog[94].dispatcher externalJobs 6421213
scalar FogSequentialForward.fog[94].dispatcher remoteJobs 6423139
scalar FogSequentialForward.fog[94].dispatcher probeQueries 0
scalar FogSequentialForward.fog[94].dispatcher probeAnswers 0
scalar FogSequentialForward.fog[94].dispatcher droppedJobsSLA 198931
scalar FogSequentialForward.fog[94].dispatcher jobs_class_1 8045418
scalar FogSequentialForward.fog[94].dispatcher remoteJobs_class_1 6423139
scalar FogSequentialForward.fog[94].dispatcher localJobs_class_1 1423348
scalar FogSequentialForward.fog[94].dispatcher droppedJobsSLA_class_1 198931
scalar FogSequentialForward.fog[94].server[0] rho 1
scalar FogSequentialForward.fog[94].server[0] congestionRatio 0
scalar FogSequentialForward.fog[94].server[0] totalJobs 1423348
scalar FogSequentialForward.fog[94].server[0] droppedJobsQueue 46888
scalar FogSequentialForward.fog[94].server[0] droppedJobsTimout 0
scalar FogSequentialForward.fog[94].server[0] droppedJobsSLA 909438
scalar FogSequentialForward.fog[94].server[0] droppedJobsTotal 956326
scalar FogSequentialForward.fog[95].dispatcher localJobs 1423475
scalar FogSequentialForward.fog[95].dispatcher internalJobs 1623050
scalar FogSequentialForward.fog[95].dispatcher externalJobs 6420734
scalar FogSequentialForward.fog[95].dispatcher remoteJobs 6420773
scalar FogSequentialForward.fog[95].dispatcher probeQueries 0
scalar FogSequentialForward.fog[95].dispatcher probeAnswers 0
scalar FogSequentialForward.fog[95].dispatcher droppedJobsSLA 199536
scalar FogSequentialForward.fog[95].dispatcher jobs_class_1 8043784
scalar FogSequentialForward.fog[95].dispatcher remoteJobs_class_1 6420773
scalar FogSequentialForward.fog[95].dispatcher localJobs_class_1 1423475
scalar FogSequentialForward.fog[95].dispatcher droppedJobsSLA_class_1 199536
scalar FogSequentialForward.fog[95].server[0] rho 1
scalar FogSequentialForward.fog[95].server[0] congestionRatio 0
scalar FogSequentialForward.fog[95].server[0] totalJobs 1423475
scalar FogSequentialForward.fog[95].server[0] droppedJobsQueue 46681
scalar FogSequentialForward.fog[95].server[0] droppedJobsTimout 0
scalar FogSequentialForward.fog[95].server[0] droppedJobsSLA 909447
scalar FogSequentialForward.fog[95].server[0] droppedJobsTotal 956128
scalar FogSequentialForward.fog[96].dispatcher localJobs 1424532
scalar FogSequentialForward.fog[96].dispatcher internalJobs 1621581
scalar FogSequentialForward.fog[96].dispatcher externalJobs 6425464
scalar FogSequentialForward.fog[96].dispatcher remoteJobs 6424106
scalar FogSequentialForward.fog[96].dispatcher probeQueries 0
scalar FogSequentialForward.fog[96].dispatcher probeAnswers 0
scalar FogSequentialForward.fog[96].dispatcher droppedJobsSLA 198407
scalar FogSequentialForward.fog[96].dispatcher jobs_class_1 8047045
scalar FogSequentialForward.fog[96].dispatcher remoteJobs_class_1 6424106
scalar FogSequentialForward.fog[96].dispatcher localJobs_class_1 1424532
scalar FogSequentialForward.fog[96].dispatcher droppedJobsSLA_class_1 198407
scalar FogSequentialForward.fog[96].server[0] rho 1
scalar FogSequentialForward.fog[96].server[0] congestionRatio 0
scalar FogSequentialForward.fog[96].server[0] totalJobs 1424532
scalar FogSequentialForward.fog[96].server[0] droppedJobsQueue 46916
scalar FogSequentialForward.fog[96].server[0] droppedJobsTimout 0
scalar FogSequentialForward.fog[96].server[0] droppedJobsSLA 910487
scalar FogSequentialForward.fog[96].server[0] droppedJobsTotal 957403
scalar FogSequentialForward.fog[97].dispatcher localJobs 1423411
scalar FogSequentialForward.fog[97].dispatcher internalJobs 1626095
scalar FogSequentialForward.fog[97].dispatcher externalJobs 6425013
scalar FogSequentialForward.fog[97].dispatcher remoteJobs 6428448
scalar FogSequentialForward.fog[97].dispatcher probeQueries 0
scalar FogSequentialForward.fog[97].dispatcher probeAnswers 0
scalar FogSequentialForward.fog[97].dispatcher droppedJobsSLA 199249
scalar FogSequentialForward.fog[97].dispatcher jobs_class_1 8051108
scalar FogSequentialForward.fog[97].dispatcher remoteJobs_class_1 6428448
scalar FogSequentialForward.fog[97].dispatcher localJobs_class_1 1423411
scalar FogSequentialForward.fog[97].dispatcher droppedJobsSLA_class_1 199249
scalar FogSequentialForward.fog[97].server[0] rho 0.99999982118607
scalar FogSequentialForward.fog[97].server[0] congestionRatio 0
scalar FogSequentialForward.fog[97].server[0] totalJobs 1423411
scalar FogSequentialForward.fog[97].server[0] droppedJobsQueue 46808
scalar FogSequentialForward.fog[97].server[0] droppedJobsTimout 0
scalar FogSequentialForward.fog[97].server[0] droppedJobsSLA 910210
scalar FogSequentialForward.fog[97].server[0] droppedJobsTotal 957018
scalar FogSequentialForward.fog[98].dispatcher localJobs 1423917
scalar FogSequentialForward.fog[98].dispatcher internalJobs 1623800
scalar FogSequentialForward.fog[98].dispatcher externalJobs 6428982
scalar FogSequentialForward.fog[98].dispatcher remoteJobs 6429459
scalar FogSequentialForward.fog[98].dispatcher probeQueries 0
scalar FogSequentialForward.fog[98].dispatcher probeAnswers 0
scalar FogSequentialForward.fog[98].dispatcher droppedJobsSLA 199406
scalar FogSequentialForward.fog[98].dispatcher jobs_class_1 8052782
scalar FogSequentialForward.fog[98].dispatcher remoteJobs_class_1 6429459
scalar FogSequentialForward.fog[98].dispatcher localJobs_class_1 1423917
scalar FogSequentialForward.fog[98].dispatcher droppedJobsSLA_class_1 199406
scalar FogSequentialForward.fog[98].server[0] rho 1
scalar FogSequentialForward.fog[98].server[0] congestionRatio 0
scalar FogSequentialForward.fog[98].server[0] totalJobs 1423917
scalar FogSequentialForward.fog[98].server[0] droppedJobsQueue 47191
scalar FogSequentialForward.fog[98].server[0] droppedJobsTimout 0
scalar FogSequentialForward.fog[98].server[0] droppedJobsSLA 909420
scalar FogSequentialForward.fog[98].server[0] droppedJobsTotal 956611
scalar FogSequentialForward.fog[99].dispatcher localJobs 1424039
scalar FogSequentialForward.fog[99].dispatcher internalJobs 1621451
scalar FogSequentialForward.fog[99].dispatcher externalJobs 6428396
scalar FogSequentialForward.fog[99].dispatcher remoteJobs 6426441
scalar FogSequentialForward.fog[99].dispatcher probeQueries 0
scalar FogSequentialForward.fog[99].dispatcher probeAnswers 0
scalar FogSequentialForward.fog[99].dispatcher droppedJobsSLA 199367
scalar FogSequentialForward.fog[99].dispatcher jobs_class_1 8049847
scalar FogSequentialForward.fog[99].dispatcher remoteJobs_class_1 6426441
scalar FogSequentialForward.fog[99].dispatcher localJobs_class_1 1424039
scalar FogSequentialForward.fog[99].dispatcher droppedJobsSLA_class_1 199367
scalar FogSequentialForward.fog[99].server[0] rho 1
scalar FogSequentialForward.fog[99].server[0] congestionRatio 0
scalar FogSequentialForward.fog[99].server[0] totalJobs 1424039
scalar FogSequentialForward.fog[99].server[0] droppedJobsQueue 47218
scalar FogSequentialForward.fog[99].server[0] droppedJobsTimout 0
scalar FogSequentialForward.fog[99].server[0] droppedJobsSLA 909979
scalar FogSequentialForward.fog[99].server[0] droppedJobsTotal 957197
scalar FogSequentialForward.sink avg_responseTime_1 0.1377749877336
scalar FogSequentialForward.sink p90_responseTime_1 0.015802563547
scalar FogSequentialForward.sink med_responseTime_1 0.015802563547
scalar FogSequentialForward.sink avg_delayTime_1 0
scalar FogSequentialForward.sink p90_delayTime_1 0
scalar FogSequentialForward.sink med_delayTime_1 0
scalar FogSequentialForward.sink avg_queuingTime_1 0.10520535034527
scalar FogSequentialForward.sink p90_queuingTime_1 0
scalar FogSequentialForward.sink med_queuingTime_1 0
scalar FogSequentialForward.sink avg_serviceTime_1 0.016724965682431
scalar FogSequentialForward.sink p90_serviceTime_1 0.014756808118
scalar FogSequentialForward.sink med_serviceTime_1 0.014756808118
scalar FogSequentialForward.sink avg_balancerTime_1 0.015844671704868
scalar FogSequentialForward.sink p90_balancerTime_1 0
scalar FogSequentialForward.sink med_balancerTime_1 0
scalar FogSequentialForward.sink avg_balancerCount_1 1.9487827368825
scalar FogSequentialForward.sink p90_balancerCount_1 1
scalar FogSequentialForward.sink med_balancerCount_1 1

