version 2
run Fog-mul_001-rho_09-thr_15-2-20190713-23:09:35-80823
attr configname Fog-mul_001-rho_09-thr_15
attr datetime 20190713-23:09:35
attr experiment Fog-mul_001-rho_09-thr_15
attr inifile FogSequentialForward.ini
attr iterationvars ""
attr iterationvarsf ""
attr measurement ""
attr network FogSequentialForward
attr processid 80823
attr repetition 2
attr replication #2
attr resultdir results
attr runnumber 2
attr seedset 2
param FogSequentialForward.proctimeMul 0.01
param FogSequentialForward.rho 0.9
param FogSequentialForward.fog[*].dispatcher.thr 15
param FogSequentialForward.nSources 100
param FogSequentialForward.rho 0.9
param FogSequentialForward.proctimeMul 1.0
param FogSequentialForward.source[*].appId 1
param FogSequentialForward.source[*].realTime true
param FogSequentialForward.source[*].multiHop true
param FogSequentialForward.fog[*].nServers 1
param FogSequentialForward.fog[*].dispatcher.fanOut 1
param FogSequentialForward.fog[*].server[*].timeSlice -1s
param FogSequentialForward.fog[*].server[*].timeout -1s
param FogSequentialForward.fog[*].server[*].capacity 20
param FogSequentialForward.fog[*].server[*].fifo true
param FogSequentialForward.fog[*].server[*].maxServiceTime -1s
param FogSequentialForward.fog[*].dispatcher.thr 1

scalar FogSequentialForward.fog[0].dispatcher localJobs 1533938
scalar FogSequentialForward.fog[0].dispatcher internalJobs 1622646
scalar FogSequentialForward.fog[0].dispatcher externalJobs 4786435
scalar FogSequentialForward.fog[0].dispatcher remoteJobs 4786281
scalar FogSequentialForward.fog[0].dispatcher probeQueries 0
scalar FogSequentialForward.fog[0].dispatcher probeAnswers 0
scalar FogSequentialForward.fog[0].dispatcher droppedJobsSLA 88862
scalar FogSequentialForward.fog[0].dispatcher jobs_class_1 6409081
scalar FogSequentialForward.fog[0].dispatcher remoteJobs_class_1 4786281
scalar FogSequentialForward.fog[0].dispatcher localJobs_class_1 1533938
scalar FogSequentialForward.fog[0].dispatcher droppedJobsSLA_class_1 88862
scalar FogSequentialForward.fog[0].server[0] rho 1
scalar FogSequentialForward.fog[0].server[0] congestionRatio 0
scalar FogSequentialForward.fog[0].server[0] totalJobs 1533938
scalar FogSequentialForward.fog[0].server[0] droppedJobsQueue 96747
scalar FogSequentialForward.fog[0].server[0] droppedJobsTimout 0
scalar FogSequentialForward.fog[0].server[0] droppedJobsSLA 1021904
scalar FogSequentialForward.fog[0].server[0] droppedJobsTotal 1118651
scalar FogSequentialForward.fog[1].dispatcher localJobs 1534523
scalar FogSequentialForward.fog[1].dispatcher internalJobs 1621690
scalar FogSequentialForward.fog[1].dispatcher externalJobs 4792262
scalar FogSequentialForward.fog[1].dispatcher remoteJobs 4791042
scalar FogSequentialForward.fog[1].dispatcher probeQueries 0
scalar FogSequentialForward.fog[1].dispatcher probeAnswers 0
scalar FogSequentialForward.fog[1].dispatcher droppedJobsSLA 88387
scalar FogSequentialForward.fog[1].dispatcher jobs_class_1 6413952
scalar FogSequentialForward.fog[1].dispatcher remoteJobs_class_1 4791042
scalar FogSequentialForward.fog[1].dispatcher localJobs_class_1 1534523
scalar FogSequentialForward.fog[1].dispatcher droppedJobsSLA_class_1 88387
scalar FogSequentialForward.fog[1].server[0] rho 0.99999964237213
scalar FogSequentialForward.fog[1].server[0] congestionRatio 0
scalar FogSequentialForward.fog[1].server[0] totalJobs 1534523
scalar FogSequentialForward.fog[1].server[0] droppedJobsQueue 96740
scalar FogSequentialForward.fog[1].server[0] droppedJobsTimout 0
scalar FogSequentialForward.fog[1].server[0] droppedJobsSLA 1022034
scalar FogSequentialForward.fog[1].server[0] droppedJobsTotal 1118774
scalar FogSequentialForward.fog[2].dispatcher localJobs 1535230
scalar FogSequentialForward.fog[2].dispatcher internalJobs 1622594
scalar FogSequentialForward.fog[2].dispatcher externalJobs 4788011
scalar FogSequentialForward.fog[2].dispatcher remoteJobs 4786974
scalar FogSequentialForward.fog[2].dispatcher probeQueries 0
scalar FogSequentialForward.fog[2].dispatcher probeAnswers 0
scalar FogSequentialForward.fog[2].dispatcher droppedJobsSLA 88401
scalar FogSequentialForward.fog[2].dispatcher jobs_class_1 6410605
scalar FogSequentialForward.fog[2].dispatcher remoteJobs_class_1 4786974
scalar FogSequentialForward.fog[2].dispatcher localJobs_class_1 1535230
scalar FogSequentialForward.fog[2].dispatcher droppedJobsSLA_class_1 88401
scalar FogSequentialForward.fog[2].server[0] rho 1
scalar FogSequentialForward.fog[2].server[0] congestionRatio 0
scalar FogSequentialForward.fog[2].server[0] totalJobs 1535230
scalar FogSequentialForward.fog[2].server[0] droppedJobsQueue 96960
scalar FogSequentialForward.fog[2].server[0] droppedJobsTimout 0
scalar FogSequentialForward.fog[2].server[0] droppedJobsSLA 1022739
scalar FogSequentialForward.fog[2].server[0] droppedJobsTotal 1119699
scalar FogSequentialForward.fog[3].dispatcher localJobs 1534990
scalar FogSequentialForward.fog[3].dispatcher internalJobs 1622612
scalar FogSequentialForward.fog[3].dispatcher externalJobs 4782758
scalar FogSequentialForward.fog[3].dispatcher remoteJobs 4781691
scalar FogSequentialForward.fog[3].dispatcher probeQueries 0
scalar FogSequentialForward.fog[3].dispatcher probeAnswers 0
scalar FogSequentialForward.fog[3].dispatcher droppedJobsSLA 88689
scalar FogSequentialForward.fog[3].dispatcher jobs_class_1 6405370
scalar FogSequentialForward.fog[3].dispatcher remoteJobs_class_1 4781691
scalar FogSequentialForward.fog[3].dispatcher localJobs_class_1 1534990
scalar FogSequentialForward.fog[3].dispatcher droppedJobsSLA_class_1 88689
scalar FogSequentialForward.fog[3].server[0] rho 1
scalar FogSequentialForward.fog[3].server[0] congestionRatio 0
scalar FogSequentialForward.fog[3].server[0] totalJobs 1534990
scalar FogSequentialForward.fog[3].server[0] droppedJobsQueue 96911
scalar FogSequentialForward.fog[3].server[0] droppedJobsTimout 0
scalar FogSequentialForward.fog[3].server[0] droppedJobsSLA 1022186
scalar FogSequentialForward.fog[3].server[0] droppedJobsTotal 1119097
scalar FogSequentialForward.fog[4].dispatcher localJobs 1534868
scalar FogSequentialForward.fog[4].dispatcher internalJobs 1621385
scalar FogSequentialForward.fog[4].dispatcher externalJobs 4785115
scalar FogSequentialForward.fog[4].dispatcher remoteJobs 4783151
scalar FogSequentialForward.fog[4].dispatcher probeQueries 0
scalar FogSequentialForward.fog[4].dispatcher probeAnswers 0
scalar FogSequentialForward.fog[4].dispatcher droppedJobsSLA 88481
scalar FogSequentialForward.fog[4].dispatcher jobs_class_1 6406500
scalar FogSequentialForward.fog[4].dispatcher remoteJobs_class_1 4783151
scalar FogSequentialForward.fog[4].dispatcher localJobs_class_1 1534868
scalar FogSequentialForward.fog[4].dispatcher droppedJobsSLA_class_1 88481
scalar FogSequentialForward.fog[4].server[0] rho 1
scalar FogSequentialForward.fog[4].server[0] congestionRatio 0
scalar FogSequentialForward.fog[4].server[0] totalJobs 1534868
scalar FogSequentialForward.fog[4].server[0] droppedJobsQueue 96679
scalar FogSequentialForward.fog[4].server[0] droppedJobsTimout 0
scalar FogSequentialForward.fog[4].server[0] droppedJobsSLA 1022465
scalar FogSequentialForward.fog[4].server[0] droppedJobsTotal 1119144
scalar FogSequentialForward.fog[5].dispatcher localJobs 1534877
scalar FogSequentialForward.fog[5].dispatcher internalJobs 1621138
scalar FogSequentialForward.fog[5].dispatcher externalJobs 4791648
scalar FogSequentialForward.fog[5].dispatcher remoteJobs 4789534
scalar FogSequentialForward.fog[5].dispatcher probeQueries 0
scalar FogSequentialForward.fog[5].dispatcher probeAnswers 0
scalar FogSequentialForward.fog[5].dispatcher droppedJobsSLA 88375
scalar FogSequentialForward.fog[5].dispatcher jobs_class_1 6412786
scalar FogSequentialForward.fog[5].dispatcher remoteJobs_class_1 4789534
scalar FogSequentialForward.fog[5].dispatcher localJobs_class_1 1534877
scalar FogSequentialForward.fog[5].dispatcher droppedJobsSLA_class_1 88375
scalar FogSequentialForward.fog[5].server[0] rho 1
scalar FogSequentialForward.fog[5].server[0] congestionRatio 0
scalar FogSequentialForward.fog[5].server[0] totalJobs 1534877
scalar FogSequentialForward.fog[5].server[0] droppedJobsQueue 97146
scalar FogSequentialForward.fog[5].server[0] droppedJobsTimout 0
scalar FogSequentialForward.fog[5].server[0] droppedJobsSLA 1022594
scalar FogSequentialForward.fog[5].server[0] droppedJobsTotal 1119740
scalar FogSequentialForward.fog[6].dispatcher localJobs 1534295
scalar FogSequentialForward.fog[6].dispatcher internalJobs 1624468
scalar FogSequentialForward.fog[6].dispatcher externalJobs 4786519
scalar FogSequentialForward.fog[6].dispatcher remoteJobs 4788336
scalar FogSequentialForward.fog[6].dispatcher probeQueries 0
scalar FogSequentialForward.fog[6].dispatcher probeAnswers 0
scalar FogSequentialForward.fog[6].dispatcher droppedJobsSLA 88356
scalar FogSequentialForward.fog[6].dispatcher jobs_class_1 6410987
scalar FogSequentialForward.fog[6].dispatcher remoteJobs_class_1 4788336
scalar FogSequentialForward.fog[6].dispatcher localJobs_class_1 1534295
scalar FogSequentialForward.fog[6].dispatcher droppedJobsSLA_class_1 88356
scalar FogSequentialForward.fog[6].server[0] rho 1
scalar FogSequentialForward.fog[6].server[0] congestionRatio 0
scalar FogSequentialForward.fog[6].server[0] totalJobs 1534295
scalar FogSequentialForward.fog[6].server[0] droppedJobsQueue 96789
scalar FogSequentialForward.fog[6].server[0] droppedJobsTimout 0
scalar FogSequentialForward.fog[6].server[0] droppedJobsSLA 1022170
scalar FogSequentialForward.fog[6].server[0] droppedJobsTotal 1118959
scalar FogSequentialForward.fog[7].dispatcher localJobs 1534226
scalar FogSequentialForward.fog[7].dispatcher internalJobs 1624801
scalar FogSequentialForward.fog[7].dispatcher externalJobs 4782726
scalar FogSequentialForward.fog[7].dispatcher remoteJobs 4784779
scalar FogSequentialForward.fog[7].dispatcher probeQueries 0
scalar FogSequentialForward.fog[7].dispatcher probeAnswers 0
scalar FogSequentialForward.fog[7].dispatcher droppedJobsSLA 88522
scalar FogSequentialForward.fog[7].dispatcher jobs_class_1 6407527
scalar FogSequentialForward.fog[7].dispatcher remoteJobs_class_1 4784779
scalar FogSequentialForward.fog[7].dispatcher localJobs_class_1 1534226
scalar FogSequentialForward.fog[7].dispatcher droppedJobsSLA_class_1 88522
scalar FogSequentialForward.fog[7].server[0] rho 1
scalar FogSequentialForward.fog[7].server[0] congestionRatio 0
scalar FogSequentialForward.fog[7].server[0] totalJobs 1534226
scalar FogSequentialForward.fog[7].server[0] droppedJobsQueue 96692
scalar FogSequentialForward.fog[7].server[0] droppedJobsTimout 0
scalar FogSequentialForward.fog[7].server[0] droppedJobsSLA 1021593
scalar FogSequentialForward.fog[7].server[0] droppedJobsTotal 1118285
scalar FogSequentialForward.fog[8].dispatcher localJobs 1534104
scalar FogSequentialForward.fog[8].dispatcher internalJobs 1621655
scalar FogSequentialForward.fog[8].dispatcher externalJobs 4783742
scalar FogSequentialForward.fog[8].dispatcher remoteJobs 4782765
scalar FogSequentialForward.fog[8].dispatcher probeQueries 0
scalar FogSequentialForward.fog[8].dispatcher probeAnswers 0
scalar FogSequentialForward.fog[8].dispatcher droppedJobsSLA 88528
scalar FogSequentialForward.fog[8].dispatcher jobs_class_1 6405397
scalar FogSequentialForward.fog[8].dispatcher remoteJobs_class_1 4782765
scalar FogSequentialForward.fog[8].dispatcher localJobs_class_1 1534104
scalar FogSequentialForward.fog[8].dispatcher droppedJobsSLA_class_1 88528
scalar FogSequentialForward.fog[8].server[0] rho 1
scalar FogSequentialForward.fog[8].server[0] congestionRatio 0
scalar FogSequentialForward.fog[8].server[0] totalJobs 1534104
scalar FogSequentialForward.fog[8].server[0] droppedJobsQueue 96335
scalar FogSequentialForward.fog[8].server[0] droppedJobsTimout 0
scalar FogSequentialForward.fog[8].server[0] droppedJobsSLA 1021558
scalar FogSequentialForward.fog[8].server[0] droppedJobsTotal 1117893
scalar FogSequentialForward.fog[9].dispatcher localJobs 1535545
scalar FogSequentialForward.fog[9].dispatcher internalJobs 1623778
scalar FogSequentialForward.fog[9].dispatcher externalJobs 4789306
scalar FogSequentialForward.fog[9].dispatcher remoteJobs 4789437
scalar FogSequentialForward.fog[9].dispatcher probeQueries 0
scalar FogSequentialForward.fog[9].dispatcher probeAnswers 0
scalar FogSequentialForward.fog[9].dispatcher droppedJobsSLA 88102
scalar FogSequentialForward.fog[9].dispatcher jobs_class_1 6413084
scalar FogSequentialForward.fog[9].dispatcher remoteJobs_class_1 4789437
scalar FogSequentialForward.fog[9].dispatcher localJobs_class_1 1535545
scalar FogSequentialForward.fog[9].dispatcher droppedJobsSLA_class_1 88102
scalar FogSequentialForward.fog[9].server[0] rho 1
scalar FogSequentialForward.fog[9].server[0] congestionRatio 0
scalar FogSequentialForward.fog[9].server[0] totalJobs 1535545
scalar FogSequentialForward.fog[9].server[0] droppedJobsQueue 97095
scalar FogSequentialForward.fog[9].server[0] droppedJobsTimout 0
scalar FogSequentialForward.fog[9].server[0] droppedJobsSLA 1022245
scalar FogSequentialForward.fog[9].server[0] droppedJobsTotal 1119340
scalar FogSequentialForward.fog[10].dispatcher localJobs 1534719
scalar FogSequentialForward.fog[10].dispatcher internalJobs 1623427
scalar FogSequentialForward.fog[10].dispatcher externalJobs 4788154
scalar FogSequentialForward.fog[10].dispatcher remoteJobs 4788811
scalar FogSequentialForward.fog[10].dispatcher probeQueries 0
scalar FogSequentialForward.fog[10].dispatcher probeAnswers 0
scalar FogSequentialForward.fog[10].dispatcher droppedJobsSLA 88051
scalar FogSequentialForward.fog[10].dispatcher jobs_class_1 6411581
scalar FogSequentialForward.fog[10].dispatcher remoteJobs_class_1 4788811
scalar FogSequentialForward.fog[10].dispatcher localJobs_class_1 1534719
scalar FogSequentialForward.fog[10].dispatcher droppedJobsSLA_class_1 88051
scalar FogSequentialForward.fog[10].server[0] rho 1
scalar FogSequentialForward.fog[10].server[0] congestionRatio 0
scalar FogSequentialForward.fog[10].server[0] totalJobs 1534719
scalar FogSequentialForward.fog[10].server[0] droppedJobsQueue 96751
scalar FogSequentialForward.fog[10].server[0] droppedJobsTimout 0
scalar FogSequentialForward.fog[10].server[0] droppedJobsSLA 1022141
scalar FogSequentialForward.fog[10].server[0] droppedJobsTotal 1118892
scalar FogSequentialForward.fog[11].dispatcher localJobs 1534210
scalar FogSequentialForward.fog[11].dispatcher internalJobs 1622799
scalar FogSequentialForward.fog[11].dispatcher externalJobs 4787240
scalar FogSequentialForward.fog[11].dispatcher remoteJobs 4787491
scalar FogSequentialForward.fog[11].dispatcher probeQueries 0
scalar FogSequentialForward.fog[11].dispatcher probeAnswers 0
scalar FogSequentialForward.fog[11].dispatcher droppedJobsSLA 88338
scalar FogSequentialForward.fog[11].dispatcher jobs_class_1 6410039
scalar FogSequentialForward.fog[11].dispatcher remoteJobs_class_1 4787491
scalar FogSequentialForward.fog[11].dispatcher localJobs_class_1 1534210
scalar FogSequentialForward.fog[11].dispatcher droppedJobsSLA_class_1 88338
scalar FogSequentialForward.fog[11].server[0] rho 1
scalar FogSequentialForward.fog[11].server[0] congestionRatio 0
scalar FogSequentialForward.fog[11].server[0] totalJobs 1534210
scalar FogSequentialForward.fog[11].server[0] droppedJobsQueue 96804
scalar FogSequentialForward.fog[11].server[0] droppedJobsTimout 0
scalar FogSequentialForward.fog[11].server[0] droppedJobsSLA 1022207
scalar FogSequentialForward.fog[11].server[0] droppedJobsTotal 1119011
scalar FogSequentialForward.fog[12].dispatcher localJobs 1534830
scalar FogSequentialForward.fog[12].dispatcher internalJobs 1621973
scalar FogSequentialForward.fog[12].dispatcher externalJobs 4787292
scalar FogSequentialForward.fog[12].dispatcher remoteJobs 4785958
scalar FogSequentialForward.fog[12].dispatcher probeQueries 0
scalar FogSequentialForward.fog[12].dispatcher probeAnswers 0
scalar FogSequentialForward.fog[12].dispatcher droppedJobsSLA 88477
scalar FogSequentialForward.fog[12].dispatcher jobs_class_1 6409265
scalar FogSequentialForward.fog[12].dispatcher remoteJobs_class_1 4785958
scalar FogSequentialForward.fog[12].dispatcher localJobs_class_1 1534830
scalar FogSequentialForward.fog[12].dispatcher droppedJobsSLA_class_1 88477
scalar FogSequentialForward.fog[12].server[0] rho 1
scalar FogSequentialForward.fog[12].server[0] congestionRatio 0
scalar FogSequentialForward.fog[12].server[0] totalJobs 1534830
scalar FogSequentialForward.fog[12].server[0] droppedJobsQueue 97222
scalar FogSequentialForward.fog[12].server[0] droppedJobsTimout 0
scalar FogSequentialForward.fog[12].server[0] droppedJobsSLA 1021650
scalar FogSequentialForward.fog[12].server[0] droppedJobsTotal 1118872
scalar FogSequentialForward.fog[13].dispatcher localJobs 1534262
scalar FogSequentialForward.fog[13].dispatcher internalJobs 1622817
scalar FogSequentialForward.fog[13].dispatcher externalJobs 4785891
scalar FogSequentialForward.fog[13].dispatcher remoteJobs 4786271
scalar FogSequentialForward.fog[13].dispatcher probeQueries 0
scalar FogSequentialForward.fog[13].dispatcher probeAnswers 0
scalar FogSequentialForward.fog[13].dispatcher droppedJobsSLA 88175
scalar FogSequentialForward.fog[13].dispatcher jobs_class_1 6408708
scalar FogSequentialForward.fog[13].dispatcher remoteJobs_class_1 4786271
scalar FogSequentialForward.fog[13].dispatcher localJobs_class_1 1534262
scalar FogSequentialForward.fog[13].dispatcher droppedJobsSLA_class_1 88175
scalar FogSequentialForward.fog[13].server[0] rho 1
scalar FogSequentialForward.fog[13].server[0] congestionRatio 0
scalar FogSequentialForward.fog[13].server[0] totalJobs 1534262
scalar FogSequentialForward.fog[13].server[0] droppedJobsQueue 96596
scalar FogSequentialForward.fog[13].server[0] droppedJobsTimout 0
scalar FogSequentialForward.fog[13].server[0] droppedJobsSLA 1021959
scalar FogSequentialForward.fog[13].server[0] droppedJobsTotal 1118555
scalar FogSequentialForward.fog[14].dispatcher localJobs 1534172
scalar FogSequentialForward.fog[14].dispatcher internalJobs 1624316
scalar FogSequentialForward.fog[14].dispatcher externalJobs 4786241
scalar FogSequentialForward.fog[14].dispatcher remoteJobs 4787976
scalar FogSequentialForward.fog[14].dispatcher probeQueries 0
scalar FogSequentialForward.fog[14].dispatcher probeAnswers 0
scalar FogSequentialForward.fog[14].dispatcher droppedJobsSLA 88409
scalar FogSequentialForward.fog[14].dispatcher jobs_class_1 6410557
scalar FogSequentialForward.fog[14].dispatcher remoteJobs_class_1 4787976
scalar FogSequentialForward.fog[14].dispatcher localJobs_class_1 1534172
scalar FogSequentialForward.fog[14].dispatcher droppedJobsSLA_class_1 88409
scalar FogSequentialForward.fog[14].server[0] rho 1
scalar FogSequentialForward.fog[14].server[0] congestionRatio 0
scalar FogSequentialForward.fog[14].server[0] totalJobs 1534172
scalar FogSequentialForward.fog[14].server[0] droppedJobsQueue 96742
scalar FogSequentialForward.fog[14].server[0] droppedJobsTimout 0
scalar FogSequentialForward.fog[14].server[0] droppedJobsSLA 1021916
scalar FogSequentialForward.fog[14].server[0] droppedJobsTotal 1118658
scalar FogSequentialForward.fog[15].dispatcher localJobs 1535486
scalar FogSequentialForward.fog[15].dispatcher internalJobs 1622426
scalar FogSequentialForward.fog[15].dispatcher externalJobs 4788316
scalar FogSequentialForward.fog[15].dispatcher remoteJobs 4786395
scalar FogSequentialForward.fog[15].dispatcher probeQueries 0
scalar FogSequentialForward.fog[15].dispatcher probeAnswers 0
scalar FogSequentialForward.fog[15].dispatcher droppedJobsSLA 88861
scalar FogSequentialForward.fog[15].dispatcher jobs_class_1 6410742
scalar FogSequentialForward.fog[15].dispatcher remoteJobs_class_1 4786395
scalar FogSequentialForward.fog[15].dispatcher localJobs_class_1 1535486
scalar FogSequentialForward.fog[15].dispatcher droppedJobsSLA_class_1 88861
scalar FogSequentialForward.fog[15].server[0] rho 1
scalar FogSequentialForward.fog[15].server[0] congestionRatio 0
scalar FogSequentialForward.fog[15].server[0] totalJobs 1535486
scalar FogSequentialForward.fog[15].server[0] droppedJobsQueue 97156
scalar FogSequentialForward.fog[15].server[0] droppedJobsTimout 0
scalar FogSequentialForward.fog[15].server[0] droppedJobsSLA 1022259
scalar FogSequentialForward.fog[15].server[0] droppedJobsTotal 1119415
scalar FogSequentialForward.fog[16].dispatcher localJobs 1535292
scalar FogSequentialForward.fog[16].dispatcher internalJobs 1623795
scalar FogSequentialForward.fog[16].dispatcher externalJobs 4791997
scalar FogSequentialForward.fog[16].dispatcher remoteJobs 4791741
scalar FogSequentialForward.fog[16].dispatcher probeQueries 0
scalar FogSequentialForward.fog[16].dispatcher probeAnswers 0
scalar FogSequentialForward.fog[16].dispatcher droppedJobsSLA 88759
scalar FogSequentialForward.fog[16].dispatcher jobs_class_1 6415792
scalar FogSequentialForward.fog[16].dispatcher remoteJobs_class_1 4791741
scalar FogSequentialForward.fog[16].dispatcher localJobs_class_1 1535292
scalar FogSequentialForward.fog[16].dispatcher droppedJobsSLA_class_1 88759
scalar FogSequentialForward.fog[16].server[0] rho 1
scalar FogSequentialForward.fog[16].server[0] congestionRatio 0
scalar FogSequentialForward.fog[16].server[0] totalJobs 1535292
scalar FogSequentialForward.fog[16].server[0] droppedJobsQueue 97279
scalar FogSequentialForward.fog[16].server[0] droppedJobsTimout 0
scalar FogSequentialForward.fog[16].server[0] droppedJobsSLA 1022552
scalar FogSequentialForward.fog[16].server[0] droppedJobsTotal 1119831
scalar FogSequentialForward.fog[17].dispatcher localJobs 1534646
scalar FogSequentialForward.fog[17].dispatcher internalJobs 1623783
scalar FogSequentialForward.fog[17].dispatcher externalJobs 4787795
scalar FogSequentialForward.fog[17].dispatcher remoteJobs 4788641
scalar FogSequentialForward.fog[17].dispatcher probeQueries 0
scalar FogSequentialForward.fog[17].dispatcher probeAnswers 0
scalar FogSequentialForward.fog[17].dispatcher droppedJobsSLA 88291
scalar FogSequentialForward.fog[17].dispatcher jobs_class_1 6411578
scalar FogSequentialForward.fog[17].dispatcher remoteJobs_class_1 4788641
scalar FogSequentialForward.fog[17].dispatcher localJobs_class_1 1534646
scalar FogSequentialForward.fog[17].dispatcher droppedJobsSLA_class_1 88291
scalar FogSequentialForward.fog[17].server[0] rho 1
scalar FogSequentialForward.fog[17].server[0] congestionRatio 0
scalar FogSequentialForward.fog[17].server[0] totalJobs 1534646
scalar FogSequentialForward.fog[17].server[0] droppedJobsQueue 96766
scalar FogSequentialForward.fog[17].server[0] droppedJobsTimout 0
scalar FogSequentialForward.fog[17].server[0] droppedJobsSLA 1022325
scalar FogSequentialForward.fog[17].server[0] droppedJobsTotal 1119091
scalar FogSequentialForward.fog[18].dispatcher localJobs 1534511
scalar FogSequentialForward.fog[18].dispatcher internalJobs 1623459
scalar FogSequentialForward.fog[18].dispatcher externalJobs 4784228
scalar FogSequentialForward.fog[18].dispatcher remoteJobs 4784888
scalar FogSequentialForward.fog[18].dispatcher probeQueries 0
scalar FogSequentialForward.fog[18].dispatcher probeAnswers 0
scalar FogSequentialForward.fog[18].dispatcher droppedJobsSLA 88288
scalar FogSequentialForward.fog[18].dispatcher jobs_class_1 6407687
scalar FogSequentialForward.fog[18].dispatcher remoteJobs_class_1 4784888
scalar FogSequentialForward.fog[18].dispatcher localJobs_class_1 1534511
scalar FogSequentialForward.fog[18].dispatcher droppedJobsSLA_class_1 88288
scalar FogSequentialForward.fog[18].server[0] rho 1
scalar FogSequentialForward.fog[18].server[0] congestionRatio 0
scalar FogSequentialForward.fog[18].server[0] totalJobs 1534511
scalar FogSequentialForward.fog[18].server[0] droppedJobsQueue 97123
scalar FogSequentialForward.fog[18].server[0] droppedJobsTimout 0
scalar FogSequentialForward.fog[18].server[0] droppedJobsSLA 1021112
scalar FogSequentialForward.fog[18].server[0] droppedJobsTotal 1118235
scalar FogSequentialForward.fog[19].dispatcher localJobs 1535018
scalar FogSequentialForward.fog[19].dispatcher internalJobs 1623554
scalar FogSequentialForward.fog[19].dispatcher externalJobs 4789338
scalar FogSequentialForward.fog[19].dispatcher remoteJobs 4789198
scalar FogSequentialForward.fog[19].dispatcher probeQueries 0
scalar FogSequentialForward.fog[19].dispatcher probeAnswers 0
scalar FogSequentialForward.fog[19].dispatcher droppedJobsSLA 88676
scalar FogSequentialForward.fog[19].dispatcher jobs_class_1 6412892
scalar FogSequentialForward.fog[19].dispatcher remoteJobs_class_1 4789198
scalar FogSequentialForward.fog[19].dispatcher localJobs_class_1 1535018
scalar FogSequentialForward.fog[19].dispatcher droppedJobsSLA_class_1 88676
scalar FogSequentialForward.fog[19].server[0] rho 1
scalar FogSequentialForward.fog[19].server[0] congestionRatio 0
scalar FogSequentialForward.fog[19].server[0] totalJobs 1535018
scalar FogSequentialForward.fog[19].server[0] droppedJobsQueue 96683
scalar FogSequentialForward.fog[19].server[0] droppedJobsTimout 0
scalar FogSequentialForward.fog[19].server[0] droppedJobsSLA 1022860
scalar FogSequentialForward.fog[19].server[0] droppedJobsTotal 1119543
scalar FogSequentialForward.fog[20].dispatcher localJobs 1534105
scalar FogSequentialForward.fog[20].dispatcher internalJobs 1624224
scalar FogSequentialForward.fog[20].dispatcher externalJobs 4785758
scalar FogSequentialForward.fog[20].dispatcher remoteJobs 4787355
scalar FogSequentialForward.fog[20].dispatcher probeQueries 0
scalar FogSequentialForward.fog[20].dispatcher probeAnswers 0
scalar FogSequentialForward.fog[20].dispatcher droppedJobsSLA 88522
scalar FogSequentialForward.fog[20].dispatcher jobs_class_1 6409982
scalar FogSequentialForward.fog[20].dispatcher remoteJobs_class_1 4787355
scalar FogSequentialForward.fog[20].dispatcher localJobs_class_1 1534105
scalar FogSequentialForward.fog[20].dispatcher droppedJobsSLA_class_1 88522
scalar FogSequentialForward.fog[20].server[0] rho 1
scalar FogSequentialForward.fog[20].server[0] congestionRatio 0
scalar FogSequentialForward.fog[20].server[0] totalJobs 1534105
scalar FogSequentialForward.fog[20].server[0] droppedJobsQueue 96859
scalar FogSequentialForward.fog[20].server[0] droppedJobsTimout 0
scalar FogSequentialForward.fog[20].server[0] droppedJobsSLA 1021222
scalar FogSequentialForward.fog[20].server[0] droppedJobsTotal 1118081
scalar FogSequentialForward.fog[21].dispatcher localJobs 1534476
scalar FogSequentialForward.fog[21].dispatcher internalJobs 1625032
scalar FogSequentialForward.fog[21].dispatcher externalJobs 4789687
scalar FogSequentialForward.fog[21].dispatcher remoteJobs 4791985
scalar FogSequentialForward.fog[21].dispatcher probeQueries 0
scalar FogSequentialForward.fog[21].dispatcher probeAnswers 0
scalar FogSequentialForward.fog[21].dispatcher droppedJobsSLA 88258
scalar FogSequentialForward.fog[21].dispatcher jobs_class_1 6414719
scalar FogSequentialForward.fog[21].dispatcher remoteJobs_class_1 4791985
scalar FogSequentialForward.fog[21].dispatcher localJobs_class_1 1534476
scalar FogSequentialForward.fog[21].dispatcher droppedJobsSLA_class_1 88258
scalar FogSequentialForward.fog[21].server[0] rho 1
scalar FogSequentialForward.fog[21].server[0] congestionRatio 0
scalar FogSequentialForward.fog[21].server[0] totalJobs 1534476
scalar FogSequentialForward.fog[21].server[0] droppedJobsQueue 96954
scalar FogSequentialForward.fog[21].server[0] droppedJobsTimout 0
scalar FogSequentialForward.fog[21].server[0] droppedJobsSLA 1021593
scalar FogSequentialForward.fog[21].server[0] droppedJobsTotal 1118547
scalar FogSequentialForward.fog[22].dispatcher localJobs 1534375
scalar FogSequentialForward.fog[22].dispatcher internalJobs 1625632
scalar FogSequentialForward.fog[22].dispatcher externalJobs 4784908
scalar FogSequentialForward.fog[22].dispatcher remoteJobs 4787515
scalar FogSequentialForward.fog[22].dispatcher probeQueries 0
scalar FogSequentialForward.fog[22].dispatcher probeAnswers 0
scalar FogSequentialForward.fog[22].dispatcher droppedJobsSLA 88650
scalar FogSequentialForward.fog[22].dispatcher jobs_class_1 6410540
scalar FogSequentialForward.fog[22].dispatcher remoteJobs_class_1 4787515
scalar FogSequentialForward.fog[22].dispatcher localJobs_class_1 1534375
scalar FogSequentialForward.fog[22].dispatcher droppedJobsSLA_class_1 88650
scalar FogSequentialForward.fog[22].server[0] rho 1
scalar FogSequentialForward.fog[22].server[0] congestionRatio 0
scalar FogSequentialForward.fog[22].server[0] totalJobs 1534375
scalar FogSequentialForward.fog[22].server[0] droppedJobsQueue 96948
scalar FogSequentialForward.fog[22].server[0] droppedJobsTimout 0
scalar FogSequentialForward.fog[22].server[0] droppedJobsSLA 1021538
scalar FogSequentialForward.fog[22].server[0] droppedJobsTotal 1118486
scalar FogSequentialForward.fog[23].dispatcher localJobs 1535330
scalar FogSequentialForward.fog[23].dispatcher internalJobs 1623556
scalar FogSequentialForward.fog[23].dispatcher externalJobs 4788117
scalar FogSequentialForward.fog[23].dispatcher remoteJobs 4787820
scalar FogSequentialForward.fog[23].dispatcher probeQueries 0
scalar FogSequentialForward.fog[23].dispatcher probeAnswers 0
scalar FogSequentialForward.fog[23].dispatcher droppedJobsSLA 88523
scalar FogSequentialForward.fog[23].dispatcher jobs_class_1 6411673
scalar FogSequentialForward.fog[23].dispatcher remoteJobs_class_1 4787820
scalar FogSequentialForward.fog[23].dispatcher localJobs_class_1 1535330
scalar FogSequentialForward.fog[23].dispatcher droppedJobsSLA_class_1 88523
scalar FogSequentialForward.fog[23].server[0] rho 0.99999988079071
scalar FogSequentialForward.fog[23].server[0] congestionRatio 0
scalar FogSequentialForward.fog[23].server[0] totalJobs 1535330
scalar FogSequentialForward.fog[23].server[0] droppedJobsQueue 96935
scalar FogSequentialForward.fog[23].server[0] droppedJobsTimout 0
scalar FogSequentialForward.fog[23].server[0] droppedJobsSLA 1022195
scalar FogSequentialForward.fog[23].server[0] droppedJobsTotal 1119130
scalar FogSequentialForward.fog[24].dispatcher localJobs 1534904
scalar FogSequentialForward.fog[24].dispatcher internalJobs 1623635
scalar FogSequentialForward.fog[24].dispatcher externalJobs 4787436
scalar FogSequentialForward.fog[24].dispatcher remoteJobs 4787618
scalar FogSequentialForward.fog[24].dispatcher probeQueries 0
scalar FogSequentialForward.fog[24].dispatcher probeAnswers 0
scalar FogSequentialForward.fog[24].dispatcher droppedJobsSLA 88549
scalar FogSequentialForward.fog[24].dispatcher jobs_class_1 6411071
scalar FogSequentialForward.fog[24].dispatcher remoteJobs_class_1 4787618
scalar FogSequentialForward.fog[24].dispatcher localJobs_class_1 1534904
scalar FogSequentialForward.fog[24].dispatcher droppedJobsSLA_class_1 88549
scalar FogSequentialForward.fog[24].server[0] rho 1
scalar FogSequentialForward.fog[24].server[0] congestionRatio 0
scalar FogSequentialForward.fog[24].server[0] totalJobs 1534904
scalar FogSequentialForward.fog[24].server[0] droppedJobsQueue 96828
scalar FogSequentialForward.fog[24].server[0] droppedJobsTimout 0
scalar FogSequentialForward.fog[24].server[0] droppedJobsSLA 1022150
scalar FogSequentialForward.fog[24].server[0] droppedJobsTotal 1118978
scalar FogSequentialForward.fog[25].dispatcher localJobs 1534302
scalar FogSequentialForward.fog[25].dispatcher internalJobs 1623678
scalar FogSequentialForward.fog[25].dispatcher externalJobs 4788048
scalar FogSequentialForward.fog[25].dispatcher remoteJobs 4788752
scalar FogSequentialForward.fog[25].dispatcher probeQueries 0
scalar FogSequentialForward.fog[25].dispatcher probeAnswers 0
scalar FogSequentialForward.fog[25].dispatcher droppedJobsSLA 88672
scalar FogSequentialForward.fog[25].dispatcher jobs_class_1 6411726
scalar FogSequentialForward.fog[25].dispatcher remoteJobs_class_1 4788752
scalar FogSequentialForward.fog[25].dispatcher localJobs_class_1 1534302
scalar FogSequentialForward.fog[25].dispatcher droppedJobsSLA_class_1 88672
scalar FogSequentialForward.fog[25].server[0] rho 1
scalar FogSequentialForward.fog[25].server[0] congestionRatio 0
scalar FogSequentialForward.fog[25].server[0] totalJobs 1534302
scalar FogSequentialForward.fog[25].server[0] droppedJobsQueue 96659
scalar FogSequentialForward.fog[25].server[0] droppedJobsTimout 0
scalar FogSequentialForward.fog[25].server[0] droppedJobsSLA 1022255
scalar FogSequentialForward.fog[25].server[0] droppedJobsTotal 1118914
scalar FogSequentialForward.fog[26].dispatcher localJobs 1535015
scalar FogSequentialForward.fog[26].dispatcher internalJobs 1623808
scalar FogSequentialForward.fog[26].dispatcher externalJobs 4790073
scalar FogSequentialForward.fog[26].dispatcher remoteJobs 4790190
scalar FogSequentialForward.fog[26].dispatcher probeQueries 0
scalar FogSequentialForward.fog[26].dispatcher probeAnswers 0
scalar FogSequentialForward.fog[26].dispatcher droppedJobsSLA 88676
scalar FogSequentialForward.fog[26].dispatcher jobs_class_1 6413881
scalar FogSequentialForward.fog[26].dispatcher remoteJobs_class_1 4790190
scalar FogSequentialForward.fog[26].dispatcher localJobs_class_1 1535015
scalar FogSequentialForward.fog[26].dispatcher droppedJobsSLA_class_1 88676
scalar FogSequentialForward.fog[26].server[0] rho 0.99999952316284
scalar FogSequentialForward.fog[26].server[0] congestionRatio 0
scalar FogSequentialForward.fog[26].server[0] totalJobs 1535015
scalar FogSequentialForward.fog[26].server[0] droppedJobsQueue 97125
scalar FogSequentialForward.fog[26].server[0] droppedJobsTimout 0
scalar FogSequentialForward.fog[26].server[0] droppedJobsSLA 1021438
scalar FogSequentialForward.fog[26].server[0] droppedJobsTotal 1118563
scalar FogSequentialForward.fog[27].dispatcher localJobs 1534893
scalar FogSequentialForward.fog[27].dispatcher internalJobs 1624246
scalar FogSequentialForward.fog[27].dispatcher externalJobs 4790708
scalar FogSequentialForward.fog[27].dispatcher remoteJobs 4791249
scalar FogSequentialForward.fog[27].dispatcher probeQueries 0
scalar FogSequentialForward.fog[27].dispatcher probeAnswers 0
scalar FogSequentialForward.fog[27].dispatcher droppedJobsSLA 88812
scalar FogSequentialForward.fog[27].dispatcher jobs_class_1 6414954
scalar FogSequentialForward.fog[27].dispatcher remoteJobs_class_1 4791249
scalar FogSequentialForward.fog[27].dispatcher localJobs_class_1 1534893
scalar FogSequentialForward.fog[27].dispatcher droppedJobsSLA_class_1 88812
scalar FogSequentialForward.fog[27].server[0] rho 1
scalar FogSequentialForward.fog[27].server[0] congestionRatio 0
scalar FogSequentialForward.fog[27].server[0] totalJobs 1534893
scalar FogSequentialForward.fog[27].server[0] droppedJobsQueue 97083
scalar FogSequentialForward.fog[27].server[0] droppedJobsTimout 0
scalar FogSequentialForward.fog[27].server[0] droppedJobsSLA 1022652
scalar FogSequentialForward.fog[27].server[0] droppedJobsTotal 1119735
scalar FogSequentialForward.fog[28].dispatcher localJobs 1535242
scalar FogSequentialForward.fog[28].dispatcher internalJobs 1623769
scalar FogSequentialForward.fog[28].dispatcher externalJobs 4788596
scalar FogSequentialForward.fog[28].dispatcher remoteJobs 4788478
scalar FogSequentialForward.fog[28].dispatcher probeQueries 0
scalar FogSequentialForward.fog[28].dispatcher probeAnswers 0
scalar FogSequentialForward.fog[28].dispatcher droppedJobsSLA 88645
scalar FogSequentialForward.fog[28].dispatcher jobs_class_1 6412365
scalar FogSequentialForward.fog[28].dispatcher remoteJobs_class_1 4788478
scalar FogSequentialForward.fog[28].dispatcher localJobs_class_1 1535242
scalar FogSequentialForward.fog[28].dispatcher droppedJobsSLA_class_1 88645
scalar FogSequentialForward.fog[28].server[0] rho 1
scalar FogSequentialForward.fog[28].server[0] congestionRatio 0
scalar FogSequentialForward.fog[28].server[0] totalJobs 1535242
scalar FogSequentialForward.fog[28].server[0] droppedJobsQueue 97049
scalar FogSequentialForward.fog[28].server[0] droppedJobsTimout 0
scalar FogSequentialForward.fog[28].server[0] droppedJobsSLA 1022271
scalar FogSequentialForward.fog[28].server[0] droppedJobsTotal 1119320
scalar FogSequentialForward.fog[29].dispatcher localJobs 1534986
scalar FogSequentialForward.fog[29].dispatcher internalJobs 1624526
scalar FogSequentialForward.fog[29].dispatcher externalJobs 4789105
scalar FogSequentialForward.fog[29].dispatcher remoteJobs 4790353
scalar FogSequentialForward.fog[29].dispatcher probeQueries 0
scalar FogSequentialForward.fog[29].dispatcher probeAnswers 0
scalar FogSequentialForward.fog[29].dispatcher droppedJobsSLA 88292
scalar FogSequentialForward.fog[29].dispatcher jobs_class_1 6413631
scalar FogSequentialForward.fog[29].dispatcher remoteJobs_class_1 4790353
scalar FogSequentialForward.fog[29].dispatcher localJobs_class_1 1534986
scalar FogSequentialForward.fog[29].dispatcher droppedJobsSLA_class_1 88292
scalar FogSequentialForward.fog[29].server[0] rho 1
scalar FogSequentialForward.fog[29].server[0] congestionRatio 0
scalar FogSequentialForward.fog[29].server[0] totalJobs 1534986
scalar FogSequentialForward.fog[29].server[0] droppedJobsQueue 97059
scalar FogSequentialForward.fog[29].server[0] droppedJobsTimout 0
scalar FogSequentialForward.fog[29].server[0] droppedJobsSLA 1022460
scalar FogSequentialForward.fog[29].server[0] droppedJobsTotal 1119519
scalar FogSequentialForward.fog[30].dispatcher localJobs 1534720
scalar FogSequentialForward.fog[30].dispatcher internalJobs 1621648
scalar FogSequentialForward.fog[30].dispatcher externalJobs 4788030
scalar FogSequentialForward.fog[30].dispatcher remoteJobs 4786137
scalar FogSequentialForward.fog[30].dispatcher probeQueries 0
scalar FogSequentialForward.fog[30].dispatcher probeAnswers 0
scalar FogSequentialForward.fog[30].dispatcher droppedJobsSLA 88821
scalar FogSequentialForward.fog[30].dispatcher jobs_class_1 6409678
scalar FogSequentialForward.fog[30].dispatcher remoteJobs_class_1 4786137
scalar FogSequentialForward.fog[30].dispatcher localJobs_class_1 1534720
scalar FogSequentialForward.fog[30].dispatcher droppedJobsSLA_class_1 88821
scalar FogSequentialForward.fog[30].server[0] rho 1
scalar FogSequentialForward.fog[30].server[0] congestionRatio 0
scalar FogSequentialForward.fog[30].server[0] totalJobs 1534720
scalar FogSequentialForward.fog[30].server[0] droppedJobsQueue 96840
scalar FogSequentialForward.fog[30].server[0] droppedJobsTimout 0
scalar FogSequentialForward.fog[30].server[0] droppedJobsSLA 1021912
scalar FogSequentialForward.fog[30].server[0] droppedJobsTotal 1118752
scalar FogSequentialForward.fog[31].dispatcher localJobs 1534208
scalar FogSequentialForward.fog[31].dispatcher internalJobs 1621231
scalar FogSequentialForward.fog[31].dispatcher externalJobs 4787808
scalar FogSequentialForward.fog[31].dispatcher remoteJobs 4786505
scalar FogSequentialForward.fog[31].dispatcher probeQueries 0
scalar FogSequentialForward.fog[31].dispatcher probeAnswers 0
scalar FogSequentialForward.fog[31].dispatcher droppedJobsSLA 88326
scalar FogSequentialForward.fog[31].dispatcher jobs_class_1 6409039
scalar FogSequentialForward.fog[31].dispatcher remoteJobs_class_1 4786505
scalar FogSequentialForward.fog[31].dispatcher localJobs_class_1 1534208
scalar FogSequentialForward.fog[31].dispatcher droppedJobsSLA_class_1 88326
scalar FogSequentialForward.fog[31].server[0] rho 1
scalar FogSequentialForward.fog[31].server[0] congestionRatio 0
scalar FogSequentialForward.fog[31].server[0] totalJobs 1534208
scalar FogSequentialForward.fog[31].server[0] droppedJobsQueue 96356
scalar FogSequentialForward.fog[31].server[0] droppedJobsTimout 0
scalar FogSequentialForward.fog[31].server[0] droppedJobsSLA 1022243
scalar FogSequentialForward.fog[31].server[0] droppedJobsTotal 1118599
scalar FogSequentialForward.fog[32].dispatcher localJobs 1534411
scalar FogSequentialForward.fog[32].dispatcher internalJobs 1621359
scalar FogSequentialForward.fog[32].dispatcher externalJobs 4785681
scalar FogSequentialForward.fog[32].dispatcher remoteJobs 4784679
scalar FogSequentialForward.fog[32].dispatcher probeQueries 0
scalar FogSequentialForward.fog[32].dispatcher probeAnswers 0
scalar FogSequentialForward.fog[32].dispatcher droppedJobsSLA 87950
scalar FogSequentialForward.fog[32].dispatcher jobs_class_1 6407040
scalar FogSequentialForward.fog[32].dispatcher remoteJobs_class_1 4784679
scalar FogSequentialForward.fog[32].dispatcher localJobs_class_1 1534411
scalar FogSequentialForward.fog[32].dispatcher droppedJobsSLA_class_1 87950
scalar FogSequentialForward.fog[32].server[0] rho 0.99999964237213
scalar FogSequentialForward.fog[32].server[0] congestionRatio 0
scalar FogSequentialForward.fog[32].server[0] totalJobs 1534411
scalar FogSequentialForward.fog[32].server[0] droppedJobsQueue 96803
scalar FogSequentialForward.fog[32].server[0] droppedJobsTimout 0
scalar FogSequentialForward.fog[32].server[0] droppedJobsSLA 1021688
scalar FogSequentialForward.fog[32].server[0] droppedJobsTotal 1118491
scalar FogSequentialForward.fog[33].dispatcher localJobs 1534083
scalar FogSequentialForward.fog[33].dispatcher internalJobs 1624840
scalar FogSequentialForward.fog[33].dispatcher externalJobs 4785893
scalar FogSequentialForward.fog[33].dispatcher remoteJobs 4788500
scalar FogSequentialForward.fog[33].dispatcher probeQueries 0
scalar FogSequentialForward.fog[33].dispatcher probeAnswers 0
scalar FogSequentialForward.fog[33].dispatcher droppedJobsSLA 88150
scalar FogSequentialForward.fog[33].dispatcher jobs_class_1 6410733
scalar FogSequentialForward.fog[33].dispatcher remoteJobs_class_1 4788500
scalar FogSequentialForward.fog[33].dispatcher localJobs_class_1 1534083
scalar FogSequentialForward.fog[33].dispatcher droppedJobsSLA_class_1 88150
scalar FogSequentialForward.fog[33].server[0] rho 1
scalar FogSequentialForward.fog[33].server[0] congestionRatio 0
scalar FogSequentialForward.fog[33].server[0] totalJobs 1534083
scalar FogSequentialForward.fog[33].server[0] droppedJobsQueue 96741
scalar FogSequentialForward.fog[33].server[0] droppedJobsTimout 0
scalar FogSequentialForward.fog[33].server[0] droppedJobsSLA 1021748
scalar FogSequentialForward.fog[33].server[0] droppedJobsTotal 1118489
scalar FogSequentialForward.fog[34].dispatcher localJobs 1534766
scalar FogSequentialForward.fog[34].dispatcher internalJobs 1622565
scalar FogSequentialForward.fog[34].dispatcher externalJobs 4789177
scalar FogSequentialForward.fog[34].dispatcher remoteJobs 4788246
scalar FogSequentialForward.fog[34].dispatcher probeQueries 0
scalar FogSequentialForward.fog[34].dispatcher probeAnswers 0
scalar FogSequentialForward.fog[34].dispatcher droppedJobsSLA 88730
scalar FogSequentialForward.fog[34].dispatcher jobs_class_1 6411742
scalar FogSequentialForward.fog[34].dispatcher remoteJobs_class_1 4788246
scalar FogSequentialForward.fog[34].dispatcher localJobs_class_1 1534766
scalar FogSequentialForward.fog[34].dispatcher droppedJobsSLA_class_1 88730
scalar FogSequentialForward.fog[34].server[0] rho 1
scalar FogSequentialForward.fog[34].server[0] congestionRatio 0
scalar FogSequentialForward.fog[34].server[0] totalJobs 1534766
scalar FogSequentialForward.fog[34].server[0] droppedJobsQueue 96646
scalar FogSequentialForward.fog[34].server[0] droppedJobsTimout 0
scalar FogSequentialForward.fog[34].server[0] droppedJobsSLA 1022747
scalar FogSequentialForward.fog[34].server[0] droppedJobsTotal 1119393
scalar FogSequentialForward.fog[35].dispatcher localJobs 1534871
scalar FogSequentialForward.fog[35].dispatcher internalJobs 1622483
scalar FogSequentialForward.fog[35].dispatcher externalJobs 4791193
scalar FogSequentialForward.fog[35].dispatcher remoteJobs 4790828
scalar FogSequentialForward.fog[35].dispatcher probeQueries 0
scalar FogSequentialForward.fog[35].dispatcher probeAnswers 0
scalar FogSequentialForward.fog[35].dispatcher droppedJobsSLA 87977
scalar FogSequentialForward.fog[35].dispatcher jobs_class_1 6413676
scalar FogSequentialForward.fog[35].dispatcher remoteJobs_class_1 4790828
scalar FogSequentialForward.fog[35].dispatcher localJobs_class_1 1534871
scalar FogSequentialForward.fog[35].dispatcher droppedJobsSLA_class_1 87977
scalar FogSequentialForward.fog[35].server[0] rho 1
scalar FogSequentialForward.fog[35].server[0] congestionRatio 0
scalar FogSequentialForward.fog[35].server[0] totalJobs 1534871
scalar FogSequentialForward.fog[35].server[0] droppedJobsQueue 96678
scalar FogSequentialForward.fog[35].server[0] droppedJobsTimout 0
scalar FogSequentialForward.fog[35].server[0] droppedJobsSLA 1021834
scalar FogSequentialForward.fog[35].server[0] droppedJobsTotal 1118512
scalar FogSequentialForward.fog[36].dispatcher localJobs 1535517
scalar FogSequentialForward.fog[36].dispatcher internalJobs 1622253
scalar FogSequentialForward.fog[36].dispatcher externalJobs 4791770
scalar FogSequentialForward.fog[36].dispatcher remoteJobs 4789911
scalar FogSequentialForward.fog[36].dispatcher probeQueries 0
scalar FogSequentialForward.fog[36].dispatcher probeAnswers 0
scalar FogSequentialForward.fog[36].dispatcher droppedJobsSLA 88595
scalar FogSequentialForward.fog[36].dispatcher jobs_class_1 6414023
scalar FogSequentialForward.fog[36].dispatcher remoteJobs_class_1 4789911
scalar FogSequentialForward.fog[36].dispatcher localJobs_class_1 1535517
scalar FogSequentialForward.fog[36].dispatcher droppedJobsSLA_class_1 88595
scalar FogSequentialForward.fog[36].server[0] rho 1
scalar FogSequentialForward.fog[36].server[0] congestionRatio 0
scalar FogSequentialForward.fog[36].server[0] totalJobs 1535517
scalar FogSequentialForward.fog[36].server[0] droppedJobsQueue 96987
scalar FogSequentialForward.fog[36].server[0] droppedJobsTimout 0
scalar FogSequentialForward.fog[36].server[0] droppedJobsSLA 1022339
scalar FogSequentialForward.fog[36].server[0] droppedJobsTotal 1119326
scalar FogSequentialForward.fog[37].dispatcher localJobs 1533876
scalar FogSequentialForward.fog[37].dispatcher internalJobs 1622269
scalar FogSequentialForward.fog[37].dispatcher externalJobs 4790631
scalar FogSequentialForward.fog[37].dispatcher remoteJobs 4789924
scalar FogSequentialForward.fog[37].dispatcher probeQueries 0
scalar FogSequentialForward.fog[37].dispatcher probeAnswers 0
scalar FogSequentialForward.fog[37].dispatcher droppedJobsSLA 89100
scalar FogSequentialForward.fog[37].dispatcher jobs_class_1 6412900
scalar FogSequentialForward.fog[37].dispatcher remoteJobs_class_1 4789924
scalar FogSequentialForward.fog[37].dispatcher localJobs_class_1 1533876
scalar FogSequentialForward.fog[37].dispatcher droppedJobsSLA_class_1 89100
scalar FogSequentialForward.fog[37].server[0] rho 1
scalar FogSequentialForward.fog[37].server[0] congestionRatio 0
scalar FogSequentialForward.fog[37].server[0] totalJobs 1533876
scalar FogSequentialForward.fog[37].server[0] droppedJobsQueue 96664
scalar FogSequentialForward.fog[37].server[0] droppedJobsTimout 0
scalar FogSequentialForward.fog[37].server[0] droppedJobsSLA 1021558
scalar FogSequentialForward.fog[37].server[0] droppedJobsTotal 1118222
scalar FogSequentialForward.fog[38].dispatcher localJobs 1534651
scalar FogSequentialForward.fog[38].dispatcher internalJobs 1622231
scalar FogSequentialForward.fog[38].dispatcher externalJobs 4788937
scalar FogSequentialForward.fog[38].dispatcher remoteJobs 4787446
scalar FogSequentialForward.fog[38].dispatcher probeQueries 0
scalar FogSequentialForward.fog[38].dispatcher probeAnswers 0
scalar FogSequentialForward.fog[38].dispatcher droppedJobsSLA 89071
scalar FogSequentialForward.fog[38].dispatcher jobs_class_1 6411168
scalar FogSequentialForward.fog[38].dispatcher remoteJobs_class_1 4787446
scalar FogSequentialForward.fog[38].dispatcher localJobs_class_1 1534651
scalar FogSequentialForward.fog[38].dispatcher droppedJobsSLA_class_1 89071
scalar FogSequentialForward.fog[38].server[0] rho 0.99999839067459
scalar FogSequentialForward.fog[38].server[0] congestionRatio 0
scalar FogSequentialForward.fog[38].server[0] totalJobs 1534651
scalar FogSequentialForward.fog[38].server[0] droppedJobsQueue 96669
scalar FogSequentialForward.fog[38].server[0] droppedJobsTimout 0
scalar FogSequentialForward.fog[38].server[0] droppedJobsSLA 1022654
scalar FogSequentialForward.fog[38].server[0] droppedJobsTotal 1119323
scalar FogSequentialForward.fog[39].dispatcher localJobs 1534633
scalar FogSequentialForward.fog[39].dispatcher internalJobs 1623975
scalar FogSequentialForward.fog[39].dispatcher externalJobs 4784446
scalar FogSequentialForward.fog[39].dispatcher remoteJobs 4785035
scalar FogSequentialForward.fog[39].dispatcher probeQueries 0
scalar FogSequentialForward.fog[39].dispatcher probeAnswers 0
scalar FogSequentialForward.fog[39].dispatcher droppedJobsSLA 88753
scalar FogSequentialForward.fog[39].dispatcher jobs_class_1 6408421
scalar FogSequentialForward.fog[39].dispatcher remoteJobs_class_1 4785035
scalar FogSequentialForward.fog[39].dispatcher localJobs_class_1 1534633
scalar FogSequentialForward.fog[39].dispatcher droppedJobsSLA_class_1 88753
scalar FogSequentialForward.fog[39].server[0] rho 1
scalar FogSequentialForward.fog[39].server[0] congestionRatio 0
scalar FogSequentialForward.fog[39].server[0] totalJobs 1534633
scalar FogSequentialForward.fog[39].server[0] droppedJobsQueue 96854
scalar FogSequentialForward.fog[39].server[0] droppedJobsTimout 0
scalar FogSequentialForward.fog[39].server[0] droppedJobsSLA 1022688
scalar FogSequentialForward.fog[39].server[0] droppedJobsTotal 1119542
scalar FogSequentialForward.fog[40].dispatcher localJobs 1535575
scalar FogSequentialForward.fog[40].dispatcher internalJobs 1622612
scalar FogSequentialForward.fog[40].dispatcher externalJobs 4791993
scalar FogSequentialForward.fog[40].dispatcher remoteJobs 4790041
scalar FogSequentialForward.fog[40].dispatcher probeQueries 0
scalar FogSequentialForward.fog[40].dispatcher probeAnswers 0
scalar FogSequentialForward.fog[40].dispatcher droppedJobsSLA 88989
scalar FogSequentialForward.fog[40].dispatcher jobs_class_1 6414605
scalar FogSequentialForward.fog[40].dispatcher remoteJobs_class_1 4790041
scalar FogSequentialForward.fog[40].dispatcher localJobs_class_1 1535575
scalar FogSequentialForward.fog[40].dispatcher droppedJobsSLA_class_1 88989
scalar FogSequentialForward.fog[40].server[0] rho 1
scalar FogSequentialForward.fog[40].server[0] congestionRatio 0
scalar FogSequentialForward.fog[40].server[0] totalJobs 1535575
scalar FogSequentialForward.fog[40].server[0] droppedJobsQueue 97197
scalar FogSequentialForward.fog[40].server[0] droppedJobsTimout 0
scalar FogSequentialForward.fog[40].server[0] droppedJobsSLA 1022848
scalar FogSequentialForward.fog[40].server[0] droppedJobsTotal 1120045
scalar FogSequentialForward.fog[41].dispatcher localJobs 1534539
scalar FogSequentialForward.fog[41].dispatcher internalJobs 1623628
scalar FogSequentialForward.fog[41].dispatcher externalJobs 4791195
scalar FogSequentialForward.fog[41].dispatcher remoteJobs 4791745
scalar FogSequentialForward.fog[41].dispatcher probeQueries 0
scalar FogSequentialForward.fog[41].dispatcher probeAnswers 0
scalar FogSequentialForward.fog[41].dispatcher droppedJobsSLA 88539
scalar FogSequentialForward.fog[41].dispatcher jobs_class_1 6414823
scalar FogSequentialForward.fog[41].dispatcher remoteJobs_class_1 4791745
scalar FogSequentialForward.fog[41].dispatcher localJobs_class_1 1534539
scalar FogSequentialForward.fog[41].dispatcher droppedJobsSLA_class_1 88539
scalar FogSequentialForward.fog[41].server[0] rho 1
scalar FogSequentialForward.fog[41].server[0] congestionRatio 0
scalar FogSequentialForward.fog[41].server[0] totalJobs 1534539
scalar FogSequentialForward.fog[41].server[0] droppedJobsQueue 96998
scalar FogSequentialForward.fog[41].server[0] droppedJobsTimout 0
scalar FogSequentialForward.fog[41].server[0] droppedJobsSLA 1021730
scalar FogSequentialForward.fog[41].server[0] droppedJobsTotal 1118728
scalar FogSequentialForward.fog[42].dispatcher localJobs 1535247
scalar FogSequentialForward.fog[42].dispatcher internalJobs 1623820
scalar FogSequentialForward.fog[42].dispatcher externalJobs 4788021
scalar FogSequentialForward.fog[42].dispatcher remoteJobs 4787858
scalar FogSequentialForward.fog[42].dispatcher probeQueries 0
scalar FogSequentialForward.fog[42].dispatcher probeAnswers 0
scalar FogSequentialForward.fog[42].dispatcher droppedJobsSLA 88736
scalar FogSequentialForward.fog[42].dispatcher jobs_class_1 6411841
scalar FogSequentialForward.fog[42].dispatcher remoteJobs_class_1 4787858
scalar FogSequentialForward.fog[42].dispatcher localJobs_class_1 1535247
scalar FogSequentialForward.fog[42].dispatcher droppedJobsSLA_class_1 88736
scalar FogSequentialForward.fog[42].server[0] rho 1
scalar FogSequentialForward.fog[42].server[0] congestionRatio 0
scalar FogSequentialForward.fog[42].server[0] totalJobs 1535247
scalar FogSequentialForward.fog[42].server[0] droppedJobsQueue 97135
scalar FogSequentialForward.fog[42].server[0] droppedJobsTimout 0
scalar FogSequentialForward.fog[42].server[0] droppedJobsSLA 1022558
scalar FogSequentialForward.fog[42].server[0] droppedJobsTotal 1119693
scalar FogSequentialForward.fog[43].dispatcher localJobs 1535967
scalar FogSequentialForward.fog[43].dispatcher internalJobs 1625531
scalar FogSequentialForward.fog[43].dispatcher externalJobs 4787780
scalar FogSequentialForward.fog[43].dispatcher remoteJobs 4789183
scalar FogSequentialForward.fog[43].dispatcher probeQueries 0
scalar FogSequentialForward.fog[43].dispatcher probeAnswers 0
scalar FogSequentialForward.fog[43].dispatcher droppedJobsSLA 88161
scalar FogSequentialForward.fog[43].dispatcher jobs_class_1 6413311
scalar FogSequentialForward.fog[43].dispatcher remoteJobs_class_1 4789183
scalar FogSequentialForward.fog[43].dispatcher localJobs_class_1 1535967
scalar FogSequentialForward.fog[43].dispatcher droppedJobsSLA_class_1 88161
scalar FogSequentialForward.fog[43].server[0] rho 1
scalar FogSequentialForward.fog[43].server[0] congestionRatio 0
scalar FogSequentialForward.fog[43].server[0] totalJobs 1535967
scalar FogSequentialForward.fog[43].server[0] droppedJobsQueue 97375
scalar FogSequentialForward.fog[43].server[0] droppedJobsTimout 0
scalar FogSequentialForward.fog[43].server[0] droppedJobsSLA 1023208
scalar FogSequentialForward.fog[43].server[0] droppedJobsTotal 1120583
scalar FogSequentialForward.fog[44].dispatcher localJobs 1534602
scalar FogSequentialForward.fog[44].dispatcher internalJobs 1622236
scalar FogSequentialForward.fog[44].dispatcher externalJobs 4787245
scalar FogSequentialForward.fog[44].dispatcher remoteJobs 4786746
scalar FogSequentialForward.fog[44].dispatcher probeQueries 0
scalar FogSequentialForward.fog[44].dispatcher probeAnswers 0
scalar FogSequentialForward.fog[44].dispatcher droppedJobsSLA 88133
scalar FogSequentialForward.fog[44].dispatcher jobs_class_1 6409481
scalar FogSequentialForward.fog[44].dispatcher remoteJobs_class_1 4786746
scalar FogSequentialForward.fog[44].dispatcher localJobs_class_1 1534602
scalar FogSequentialForward.fog[44].dispatcher droppedJobsSLA_class_1 88133
scalar FogSequentialForward.fog[44].server[0] rho 1
scalar FogSequentialForward.fog[44].server[0] congestionRatio 0
scalar FogSequentialForward.fog[44].server[0] totalJobs 1534602
scalar FogSequentialForward.fog[44].server[0] droppedJobsQueue 96689
scalar FogSequentialForward.fog[44].server[0] droppedJobsTimout 0
scalar FogSequentialForward.fog[44].server[0] droppedJobsSLA 1022695
scalar FogSequentialForward.fog[44].server[0] droppedJobsTotal 1119384
scalar FogSequentialForward.fog[45].dispatcher localJobs 1535215
scalar FogSequentialForward.fog[45].dispatcher internalJobs 1622686
scalar FogSequentialForward.fog[45].dispatcher externalJobs 4790162
scalar FogSequentialForward.fog[45].dispatcher remoteJobs 4789426
scalar FogSequentialForward.fog[45].dispatcher probeQueries 0
scalar FogSequentialForward.fog[45].dispatcher probeAnswers 0
scalar FogSequentialForward.fog[45].dispatcher droppedJobsSLA 88207
scalar FogSequentialForward.fog[45].dispatcher jobs_class_1 6412848
scalar FogSequentialForward.fog[45].dispatcher remoteJobs_class_1 4789426
scalar FogSequentialForward.fog[45].dispatcher localJobs_class_1 1535215
scalar FogSequentialForward.fog[45].dispatcher droppedJobsSLA_class_1 88207
scalar FogSequentialForward.fog[45].server[0] rho 1
scalar FogSequentialForward.fog[45].server[0] congestionRatio 0
scalar FogSequentialForward.fog[45].server[0] totalJobs 1535215
scalar FogSequentialForward.fog[45].server[0] droppedJobsQueue 96710
scalar FogSequentialForward.fog[45].server[0] droppedJobsTimout 0
scalar FogSequentialForward.fog[45].server[0] droppedJobsSLA 1022511
scalar FogSequentialForward.fog[45].server[0] droppedJobsTotal 1119221
scalar FogSequentialForward.fog[46].dispatcher localJobs 1534604
scalar FogSequentialForward.fog[46].dispatcher internalJobs 1622677
scalar FogSequentialForward.fog[46].dispatcher externalJobs 4785077
scalar FogSequentialForward.fog[46].dispatcher remoteJobs 4784561
scalar FogSequentialForward.fog[46].dispatcher probeQueries 0
scalar FogSequentialForward.fog[46].dispatcher probeAnswers 0
scalar FogSequentialForward.fog[46].dispatcher droppedJobsSLA 88589
scalar FogSequentialForward.fog[46].dispatcher jobs_class_1 6407754
scalar FogSequentialForward.fog[46].dispatcher remoteJobs_class_1 4784561
scalar FogSequentialForward.fog[46].dispatcher localJobs_class_1 1534604
scalar FogSequentialForward.fog[46].dispatcher droppedJobsSLA_class_1 88589
scalar FogSequentialForward.fog[46].server[0] rho 1
scalar FogSequentialForward.fog[46].server[0] congestionRatio 0
scalar FogSequentialForward.fog[46].server[0] totalJobs 1534604
scalar FogSequentialForward.fog[46].server[0] droppedJobsQueue 96597
scalar FogSequentialForward.fog[46].server[0] droppedJobsTimout 0
scalar FogSequentialForward.fog[46].server[0] droppedJobsSLA 1021733
scalar FogSequentialForward.fog[46].server[0] droppedJobsTotal 1118330
scalar FogSequentialForward.fog[47].dispatcher localJobs 1534509
scalar FogSequentialForward.fog[47].dispatcher internalJobs 1624105
scalar FogSequentialForward.fog[47].dispatcher externalJobs 4787514
scalar FogSequentialForward.fog[47].dispatcher remoteJobs 4788904
scalar FogSequentialForward.fog[47].dispatcher probeQueries 0
scalar FogSequentialForward.fog[47].dispatcher probeAnswers 0
scalar FogSequentialForward.fog[47].dispatcher droppedJobsSLA 88206
scalar FogSequentialForward.fog[47].dispatcher jobs_class_1 6411619
scalar FogSequentialForward.fog[47].dispatcher remoteJobs_class_1 4788904
scalar FogSequentialForward.fog[47].dispatcher localJobs_class_1 1534509
scalar FogSequentialForward.fog[47].dispatcher droppedJobsSLA_class_1 88206
scalar FogSequentialForward.fog[47].server[0] rho 1
scalar FogSequentialForward.fog[47].server[0] congestionRatio 0
scalar FogSequentialForward.fog[47].server[0] totalJobs 1534509
scalar FogSequentialForward.fog[47].server[0] droppedJobsQueue 96918
scalar FogSequentialForward.fog[47].server[0] droppedJobsTimout 0
scalar FogSequentialForward.fog[47].server[0] droppedJobsSLA 1021570
scalar FogSequentialForward.fog[47].server[0] droppedJobsTotal 1118488
scalar FogSequentialForward.fog[48].dispatcher localJobs 1535294
scalar FogSequentialForward.fog[48].dispatcher internalJobs 1624542
scalar FogSequentialForward.fog[48].dispatcher externalJobs 4789384
scalar FogSequentialForward.fog[48].dispatcher remoteJobs 4790044
scalar FogSequentialForward.fog[48].dispatcher probeQueries 0
scalar FogSequentialForward.fog[48].dispatcher probeAnswers 0
scalar FogSequentialForward.fog[48].dispatcher droppedJobsSLA 88588
scalar FogSequentialForward.fog[48].dispatcher jobs_class_1 6413926
scalar FogSequentialForward.fog[48].dispatcher remoteJobs_class_1 4790044
scalar FogSequentialForward.fog[48].dispatcher localJobs_class_1 1535294
scalar FogSequentialForward.fog[48].dispatcher droppedJobsSLA_class_1 88588
scalar FogSequentialForward.fog[48].server[0] rho 1
scalar FogSequentialForward.fog[48].server[0] congestionRatio 0
scalar FogSequentialForward.fog[48].server[0] totalJobs 1535294
scalar FogSequentialForward.fog[48].server[0] droppedJobsQueue 97091
scalar FogSequentialForward.fog[48].server[0] droppedJobsTimout 0
scalar FogSequentialForward.fog[48].server[0] droppedJobsSLA 1023149
scalar FogSequentialForward.fog[48].server[0] droppedJobsTotal 1120240
scalar FogSequentialForward.fog[49].dispatcher localJobs 1534613
scalar FogSequentialForward.fog[49].dispatcher internalJobs 1624814
scalar FogSequentialForward.fog[49].dispatcher externalJobs 4788204
scalar FogSequentialForward.fog[49].dispatcher remoteJobs 4789382
scalar FogSequentialForward.fog[49].dispatcher probeQueries 0
scalar FogSequentialForward.fog[49].dispatcher probeAnswers 0
scalar FogSequentialForward.fog[49].dispatcher droppedJobsSLA 89023
scalar FogSequentialForward.fog[49].dispatcher jobs_class_1 6413018
scalar FogSequentialForward.fog[49].dispatcher remoteJobs_class_1 4789382
scalar FogSequentialForward.fog[49].dispatcher localJobs_class_1 1534613
scalar FogSequentialForward.fog[49].dispatcher droppedJobsSLA_class_1 89023
scalar FogSequentialForward.fog[49].server[0] rho 0.99999994039536
scalar FogSequentialForward.fog[49].server[0] congestionRatio 0
scalar FogSequentialForward.fog[49].server[0] totalJobs 1534613
scalar FogSequentialForward.fog[49].server[0] droppedJobsQueue 96778
scalar FogSequentialForward.fog[49].server[0] droppedJobsTimout 0
scalar FogSequentialForward.fog[49].server[0] droppedJobsSLA 1021804
scalar FogSequentialForward.fog[49].server[0] droppedJobsTotal 1118582
scalar FogSequentialForward.fog[50].dispatcher localJobs 1534474
scalar FogSequentialForward.fog[50].dispatcher internalJobs 1625325
scalar FogSequentialForward.fog[50].dispatcher externalJobs 4785890
scalar FogSequentialForward.fog[50].dispatcher remoteJobs 4788230
scalar FogSequentialForward.fog[50].dispatcher probeQueries 0
scalar FogSequentialForward.fog[50].dispatcher probeAnswers 0
scalar FogSequentialForward.fog[50].dispatcher droppedJobsSLA 88511
scalar FogSequentialForward.fog[50].dispatcher jobs_class_1 6411215
scalar FogSequentialForward.fog[50].dispatcher remoteJobs_class_1 4788230
scalar FogSequentialForward.fog[50].dispatcher localJobs_class_1 1534474
scalar FogSequentialForward.fog[50].dispatcher droppedJobsSLA_class_1 88511
scalar FogSequentialForward.fog[50].server[0] rho 1
scalar FogSequentialForward.fog[50].server[0] congestionRatio 0
scalar FogSequentialForward.fog[50].server[0] totalJobs 1534474
scalar FogSequentialForward.fog[50].server[0] droppedJobsQueue 96716
scalar FogSequentialForward.fog[50].server[0] droppedJobsTimout 0
scalar FogSequentialForward.fog[50].server[0] droppedJobsSLA 1021566
scalar FogSequentialForward.fog[50].server[0] droppedJobsTotal 1118282
scalar FogSequentialForward.fog[51].dispatcher localJobs 1534879
scalar FogSequentialForward.fog[51].dispatcher internalJobs 1623583
scalar FogSequentialForward.fog[51].dispatcher externalJobs 4789835
scalar FogSequentialForward.fog[51].dispatcher remoteJobs 4789749
scalar FogSequentialForward.fog[51].dispatcher probeQueries 0
scalar FogSequentialForward.fog[51].dispatcher probeAnswers 0
scalar FogSequentialForward.fog[51].dispatcher droppedJobsSLA 88790
scalar FogSequentialForward.fog[51].dispatcher jobs_class_1 6413418
scalar FogSequentialForward.fog[51].dispatcher remoteJobs_class_1 4789749
scalar FogSequentialForward.fog[51].dispatcher localJobs_class_1 1534879
scalar FogSequentialForward.fog[51].dispatcher droppedJobsSLA_class_1 88790
scalar FogSequentialForward.fog[51].server[0] rho 1
scalar FogSequentialForward.fog[51].server[0] congestionRatio 0
scalar FogSequentialForward.fog[51].server[0] totalJobs 1534879
scalar FogSequentialForward.fog[51].server[0] droppedJobsQueue 96840
scalar FogSequentialForward.fog[51].server[0] droppedJobsTimout 0
scalar FogSequentialForward.fog[51].server[0] droppedJobsSLA 1022453
scalar FogSequentialForward.fog[51].server[0] droppedJobsTotal 1119293
scalar FogSequentialForward.fog[52].dispatcher localJobs 1535366
scalar FogSequentialForward.fog[52].dispatcher internalJobs 1624994
scalar FogSequentialForward.fog[52].dispatcher externalJobs 4789485
scalar FogSequentialForward.fog[52].dispatcher remoteJobs 4790504
scalar FogSequentialForward.fog[52].dispatcher probeQueries 0
scalar FogSequentialForward.fog[52].dispatcher probeAnswers 0
scalar FogSequentialForward.fog[52].dispatcher droppedJobsSLA 88609
scalar FogSequentialForward.fog[52].dispatcher jobs_class_1 6414479
scalar FogSequentialForward.fog[52].dispatcher remoteJobs_class_1 4790504
scalar FogSequentialForward.fog[52].dispatcher localJobs_class_1 1535366
scalar FogSequentialForward.fog[52].dispatcher droppedJobsSLA_class_1 88609
scalar FogSequentialForward.fog[52].server[0] rho 1
scalar FogSequentialForward.fog[52].server[0] congestionRatio 0
scalar FogSequentialForward.fog[52].server[0] totalJobs 1535366
scalar FogSequentialForward.fog[52].server[0] droppedJobsQueue 97100
scalar FogSequentialForward.fog[52].server[0] droppedJobsTimout 0
scalar FogSequentialForward.fog[52].server[0] droppedJobsSLA 1022350
scalar FogSequentialForward.fog[52].server[0] droppedJobsTotal 1119450
scalar FogSequentialForward.fog[53].dispatcher localJobs 1535272
scalar FogSequentialForward.fog[53].dispatcher internalJobs 1621746
scalar FogSequentialForward.fog[53].dispatcher externalJobs 4787890
scalar FogSequentialForward.fog[53].dispatcher remoteJobs 4786068
scalar FogSequentialForward.fog[53].dispatcher probeQueries 0
scalar FogSequentialForward.fog[53].dispatcher probeAnswers 0
scalar FogSequentialForward.fog[53].dispatcher droppedJobsSLA 88296
scalar FogSequentialForward.fog[53].dispatcher jobs_class_1 6409636
scalar FogSequentialForward.fog[53].dispatcher remoteJobs_class_1 4786068
scalar FogSequentialForward.fog[53].dispatcher localJobs_class_1 1535272
scalar FogSequentialForward.fog[53].dispatcher droppedJobsSLA_class_1 88296
scalar FogSequentialForward.fog[53].server[0] rho 1
scalar FogSequentialForward.fog[53].server[0] congestionRatio 0
scalar FogSequentialForward.fog[53].server[0] totalJobs 1535272
scalar FogSequentialForward.fog[53].server[0] droppedJobsQueue 96847
scalar FogSequentialForward.fog[53].server[0] droppedJobsTimout 0
scalar FogSequentialForward.fog[53].server[0] droppedJobsSLA 1022829
scalar FogSequentialForward.fog[53].server[0] droppedJobsTotal 1119676
scalar FogSequentialForward.fog[54].dispatcher localJobs 1534948
scalar FogSequentialForward.fog[54].dispatcher internalJobs 1623559
scalar FogSequentialForward.fog[54].dispatcher externalJobs 4786476
scalar FogSequentialForward.fog[54].dispatcher remoteJobs 4786413
scalar FogSequentialForward.fog[54].dispatcher probeQueries 0
scalar FogSequentialForward.fog[54].dispatcher probeAnswers 0
scalar FogSequentialForward.fog[54].dispatcher droppedJobsSLA 88674
scalar FogSequentialForward.fog[54].dispatcher jobs_class_1 6410035
scalar FogSequentialForward.fog[54].dispatcher remoteJobs_class_1 4786413
scalar FogSequentialForward.fog[54].dispatcher localJobs_class_1 1534948
scalar FogSequentialForward.fog[54].dispatcher droppedJobsSLA_class_1 88674
scalar FogSequentialForward.fog[54].server[0] rho 1
scalar FogSequentialForward.fog[54].server[0] congestionRatio 0
scalar FogSequentialForward.fog[54].server[0] totalJobs 1534948
scalar FogSequentialForward.fog[54].server[0] droppedJobsQueue 97104
scalar FogSequentialForward.fog[54].server[0] droppedJobsTimout 0
scalar FogSequentialForward.fog[54].server[0] droppedJobsSLA 1022347
scalar FogSequentialForward.fog[54].server[0] droppedJobsTotal 1119451
scalar FogSequentialForward.fog[55].dispatcher localJobs 1534350
scalar FogSequentialForward.fog[55].dispatcher internalJobs 1619548
scalar FogSequentialForward.fog[55].dispatcher externalJobs 4788945
scalar FogSequentialForward.fog[55].dispatcher remoteJobs 4785375
scalar FogSequentialForward.fog[55].dispatcher probeQueries 0
scalar FogSequentialForward.fog[55].dispatcher probeAnswers 0
scalar FogSequentialForward.fog[55].dispatcher droppedJobsSLA 88768
scalar FogSequentialForward.fog[55].dispatcher jobs_class_1 6408493
scalar FogSequentialForward.fog[55].dispatcher remoteJobs_class_1 4785375
scalar FogSequentialForward.fog[55].dispatcher localJobs_class_1 1534350
scalar FogSequentialForward.fog[55].dispatcher droppedJobsSLA_class_1 88768
scalar FogSequentialForward.fog[55].server[0] rho 1
scalar FogSequentialForward.fog[55].server[0] congestionRatio 0
scalar FogSequentialForward.fog[55].server[0] totalJobs 1534350
scalar FogSequentialForward.fog[55].server[0] droppedJobsQueue 97010
scalar FogSequentialForward.fog[55].server[0] droppedJobsTimout 0
scalar FogSequentialForward.fog[55].server[0] droppedJobsSLA 1022655
scalar FogSequentialForward.fog[55].server[0] droppedJobsTotal 1119665
scalar FogSequentialForward.fog[56].dispatcher localJobs 1534835
scalar FogSequentialForward.fog[56].dispatcher internalJobs 1622613
scalar FogSequentialForward.fog[56].dispatcher externalJobs 4782673
scalar FogSequentialForward.fog[56].dispatcher remoteJobs 4781773
scalar FogSequentialForward.fog[56].dispatcher probeQueries 0
scalar FogSequentialForward.fog[56].dispatcher probeAnswers 0
scalar FogSequentialForward.fog[56].dispatcher droppedJobsSLA 88678
scalar FogSequentialForward.fog[56].dispatcher jobs_class_1 6405286
scalar FogSequentialForward.fog[56].dispatcher remoteJobs_class_1 4781773
scalar FogSequentialForward.fog[56].dispatcher localJobs_class_1 1534835
scalar FogSequentialForward.fog[56].dispatcher droppedJobsSLA_class_1 88678
scalar FogSequentialForward.fog[56].server[0] rho 1
scalar FogSequentialForward.fog[56].server[0] congestionRatio 0
scalar FogSequentialForward.fog[56].server[0] totalJobs 1534835
scalar FogSequentialForward.fog[56].server[0] droppedJobsQueue 96836
scalar FogSequentialForward.fog[56].server[0] droppedJobsTimout 0
scalar FogSequentialForward.fog[56].server[0] droppedJobsSLA 1021988
scalar FogSequentialForward.fog[56].server[0] droppedJobsTotal 1118824
scalar FogSequentialForward.fog[57].dispatcher localJobs 1533862
scalar FogSequentialForward.fog[57].dispatcher internalJobs 1623492
scalar FogSequentialForward.fog[57].dispatcher externalJobs 4787778
scalar FogSequentialForward.fog[57].dispatcher remoteJobs 4788797
scalar FogSequentialForward.fog[57].dispatcher probeQueries 0
scalar FogSequentialForward.fog[57].dispatcher probeAnswers 0
scalar FogSequentialForward.fog[57].dispatcher droppedJobsSLA 88611
scalar FogSequentialForward.fog[57].dispatcher jobs_class_1 6411270
scalar FogSequentialForward.fog[57].dispatcher remoteJobs_class_1 4788797
scalar FogSequentialForward.fog[57].dispatcher localJobs_class_1 1533862
scalar FogSequentialForward.fog[57].dispatcher droppedJobsSLA_class_1 88611
scalar FogSequentialForward.fog[57].server[0] rho 1
scalar FogSequentialForward.fog[57].server[0] congestionRatio 0
scalar FogSequentialForward.fog[57].server[0] totalJobs 1533862
scalar FogSequentialForward.fog[57].server[0] droppedJobsQueue 96471
scalar FogSequentialForward.fog[57].server[0] droppedJobsTimout 0
scalar FogSequentialForward.fog[57].server[0] droppedJobsSLA 1021275
scalar FogSequentialForward.fog[57].server[0] droppedJobsTotal 1117746
scalar FogSequentialForward.fog[58].dispatcher localJobs 1534361
scalar FogSequentialForward.fog[58].dispatcher internalJobs 1624138
scalar FogSequentialForward.fog[58].dispatcher externalJobs 4789048
scalar FogSequentialForward.fog[58].dispatcher remoteJobs 4790013
scalar FogSequentialForward.fog[58].dispatcher probeQueries 0
scalar FogSequentialForward.fog[58].dispatcher probeAnswers 0
scalar FogSequentialForward.fog[58].dispatcher droppedJobsSLA 88812
scalar FogSequentialForward.fog[58].dispatcher jobs_class_1 6413186
scalar FogSequentialForward.fog[58].dispatcher remoteJobs_class_1 4790013
scalar FogSequentialForward.fog[58].dispatcher localJobs_class_1 1534361
scalar FogSequentialForward.fog[58].dispatcher droppedJobsSLA_class_1 88812
scalar FogSequentialForward.fog[58].server[0] rho 0.9999988079071
scalar FogSequentialForward.fog[58].server[0] congestionRatio 0
scalar FogSequentialForward.fog[58].server[0] totalJobs 1534361
scalar FogSequentialForward.fog[58].server[0] droppedJobsQueue 96807
scalar FogSequentialForward.fog[58].server[0] droppedJobsTimout 0
scalar FogSequentialForward.fog[58].server[0] droppedJobsSLA 1021513
scalar FogSequentialForward.fog[58].server[0] droppedJobsTotal 1118320
scalar FogSequentialForward.fog[59].dispatcher localJobs 1534995
scalar FogSequentialForward.fog[59].dispatcher internalJobs 1622416
scalar FogSequentialForward.fog[59].dispatcher externalJobs 4788706
scalar FogSequentialForward.fog[59].dispatcher remoteJobs 4787919
scalar FogSequentialForward.fog[59].dispatcher probeQueries 0
scalar FogSequentialForward.fog[59].dispatcher probeAnswers 0
scalar FogSequentialForward.fog[59].dispatcher droppedJobsSLA 88208
scalar FogSequentialForward.fog[59].dispatcher jobs_class_1 6411122
scalar FogSequentialForward.fog[59].dispatcher remoteJobs_class_1 4787919
scalar FogSequentialForward.fog[59].dispatcher localJobs_class_1 1534995
scalar FogSequentialForward.fog[59].dispatcher droppedJobsSLA_class_1 88208
scalar FogSequentialForward.fog[59].server[0] rho 1
scalar FogSequentialForward.fog[59].server[0] congestionRatio 0
scalar FogSequentialForward.fog[59].server[0] totalJobs 1534995
scalar FogSequentialForward.fog[59].server[0] droppedJobsQueue 96789
scalar FogSequentialForward.fog[59].server[0] droppedJobsTimout 0
scalar FogSequentialForward.fog[59].server[0] droppedJobsSLA 1022340
scalar FogSequentialForward.fog[59].server[0] droppedJobsTotal 1119129
scalar FogSequentialForward.fog[60].dispatcher localJobs 1534137
scalar FogSequentialForward.fog[60].dispatcher internalJobs 1624301
scalar FogSequentialForward.fog[60].dispatcher externalJobs 4787498
scalar FogSequentialForward.fog[60].dispatcher remoteJobs 4788584
scalar FogSequentialForward.fog[60].dispatcher probeQueries 0
scalar FogSequentialForward.fog[60].dispatcher probeAnswers 0
scalar FogSequentialForward.fog[60].dispatcher droppedJobsSLA 89078
scalar FogSequentialForward.fog[60].dispatcher jobs_class_1 6411799
scalar FogSequentialForward.fog[60].dispatcher remoteJobs_class_1 4788584
scalar FogSequentialForward.fog[60].dispatcher localJobs_class_1 1534137
scalar FogSequentialForward.fog[60].dispatcher droppedJobsSLA_class_1 89078
scalar FogSequentialForward.fog[60].server[0] rho 1
scalar FogSequentialForward.fog[60].server[0] congestionRatio 0
scalar FogSequentialForward.fog[60].server[0] totalJobs 1534137
scalar FogSequentialForward.fog[60].server[0] droppedJobsQueue 96812
scalar FogSequentialForward.fog[60].server[0] droppedJobsTimout 0
scalar FogSequentialForward.fog[60].server[0] droppedJobsSLA 1021288
scalar FogSequentialForward.fog[60].server[0] droppedJobsTotal 1118100
scalar FogSequentialForward.fog[61].dispatcher localJobs 1534614
scalar FogSequentialForward.fog[61].dispatcher internalJobs 1624415
scalar FogSequentialForward.fog[61].dispatcher externalJobs 4789974
scalar FogSequentialForward.fog[61].dispatcher remoteJobs 4791395
scalar FogSequentialForward.fog[61].dispatcher probeQueries 0
scalar FogSequentialForward.fog[61].dispatcher probeAnswers 0
scalar FogSequentialForward.fog[61].dispatcher droppedJobsSLA 88380
scalar FogSequentialForward.fog[61].dispatcher jobs_class_1 6414389
scalar FogSequentialForward.fog[61].dispatcher remoteJobs_class_1 4791395
scalar FogSequentialForward.fog[61].dispatcher localJobs_class_1 1534614
scalar FogSequentialForward.fog[61].dispatcher droppedJobsSLA_class_1 88380
scalar FogSequentialForward.fog[61].server[0] rho 0.99999958276749
scalar FogSequentialForward.fog[61].server[0] congestionRatio 0
scalar FogSequentialForward.fog[61].server[0] totalJobs 1534614
scalar FogSequentialForward.fog[61].server[0] droppedJobsQueue 96757
scalar FogSequentialForward.fog[61].server[0] droppedJobsTimout 0
scalar FogSequentialForward.fog[61].server[0] droppedJobsSLA 1022428
scalar FogSequentialForward.fog[61].server[0] droppedJobsTotal 1119185
scalar FogSequentialForward.fog[62].dispatcher localJobs 1533934
scalar FogSequentialForward.fog[62].dispatcher internalJobs 1623027
scalar FogSequentialForward.fog[62].dispatcher externalJobs 4791962
scalar FogSequentialForward.fog[62].dispatcher remoteJobs 4792113
scalar FogSequentialForward.fog[62].dispatcher probeQueries 0
scalar FogSequentialForward.fog[62].dispatcher probeAnswers 0
scalar FogSequentialForward.fog[62].dispatcher droppedJobsSLA 88942
scalar FogSequentialForward.fog[62].dispatcher jobs_class_1 6414989
scalar FogSequentialForward.fog[62].dispatcher remoteJobs_class_1 4792113
scalar FogSequentialForward.fog[62].dispatcher localJobs_class_1 1533934
scalar FogSequentialForward.fog[62].dispatcher droppedJobsSLA_class_1 88942
scalar FogSequentialForward.fog[62].server[0] rho 1
scalar FogSequentialForward.fog[62].server[0] congestionRatio 0
scalar FogSequentialForward.fog[62].server[0] totalJobs 1533934
scalar FogSequentialForward.fog[62].server[0] droppedJobsQueue 96907
scalar FogSequentialForward.fog[62].server[0] droppedJobsTimout 0
scalar FogSequentialForward.fog[62].server[0] droppedJobsSLA 1021546
scalar FogSequentialForward.fog[62].server[0] droppedJobsTotal 1118453
scalar FogSequentialForward.fog[63].dispatcher localJobs 1534724
scalar FogSequentialForward.fog[63].dispatcher internalJobs 1623023
scalar FogSequentialForward.fog[63].dispatcher externalJobs 4789417
scalar FogSequentialForward.fog[63].dispatcher remoteJobs 4789136
scalar FogSequentialForward.fog[63].dispatcher probeQueries 0
scalar FogSequentialForward.fog[63].dispatcher probeAnswers 0
scalar FogSequentialForward.fog[63].dispatcher droppedJobsSLA 88580
scalar FogSequentialForward.fog[63].dispatcher jobs_class_1 6412440
scalar FogSequentialForward.fog[63].dispatcher remoteJobs_class_1 4789136
scalar FogSequentialForward.fog[63].dispatcher localJobs_class_1 1534724
scalar FogSequentialForward.fog[63].dispatcher droppedJobsSLA_class_1 88580
scalar FogSequentialForward.fog[63].server[0] rho 1
scalar FogSequentialForward.fog[63].server[0] congestionRatio 0
scalar FogSequentialForward.fog[63].server[0] totalJobs 1534724
scalar FogSequentialForward.fog[63].server[0] droppedJobsQueue 97022
scalar FogSequentialForward.fog[63].server[0] droppedJobsTimout 0
scalar FogSequentialForward.fog[63].server[0] droppedJobsSLA 1022994
scalar FogSequentialForward.fog[63].server[0] droppedJobsTotal 1120016
scalar FogSequentialForward.fog[64].dispatcher localJobs 1535156
scalar FogSequentialForward.fog[64].dispatcher internalJobs 1624524
scalar FogSequentialForward.fog[64].dispatcher externalJobs 4790164
scalar FogSequentialForward.fog[64].dispatcher remoteJobs 4791182
scalar FogSequentialForward.fog[64].dispatcher probeQueries 0
scalar FogSequentialForward.fog[64].dispatcher probeAnswers 0
scalar FogSequentialForward.fog[64].dispatcher droppedJobsSLA 88350
scalar FogSequentialForward.fog[64].dispatcher jobs_class_1 6414688
scalar FogSequentialForward.fog[64].dispatcher remoteJobs_class_1 4791182
scalar FogSequentialForward.fog[64].dispatcher localJobs_class_1 1535156
scalar FogSequentialForward.fog[64].dispatcher droppedJobsSLA_class_1 88350
scalar FogSequentialForward.fog[64].server[0] rho 1
scalar FogSequentialForward.fog[64].server[0] congestionRatio 0
scalar FogSequentialForward.fog[64].server[0] totalJobs 1535156
scalar FogSequentialForward.fog[64].server[0] droppedJobsQueue 97284
scalar FogSequentialForward.fog[64].server[0] droppedJobsTimout 0
scalar FogSequentialForward.fog[64].server[0] droppedJobsSLA 1022173
scalar FogSequentialForward.fog[64].server[0] droppedJobsTotal 1119457
scalar FogSequentialForward.fog[65].dispatcher localJobs 1535401
scalar FogSequentialForward.fog[65].dispatcher internalJobs 1621003
scalar FogSequentialForward.fog[65].dispatcher externalJobs 4787207
scalar FogSequentialForward.fog[65].dispatcher remoteJobs 4784327
scalar FogSequentialForward.fog[65].dispatcher probeQueries 0
scalar FogSequentialForward.fog[65].dispatcher probeAnswers 0
scalar FogSequentialForward.fog[65].dispatcher droppedJobsSLA 88482
[...]
scalar FogSequentialForward.fog[84].dispatcher droppedJobsSLA 88958
scalar FogSequentialForward.fog[84].dispatcher jobs_class_1 6409173
scalar FogSequentialForward.fog[84].dispatcher remoteJobs_class_1 4785488
scalar FogSequentialForward.fog[84].dispatcher localJobs_class_1 1534727
scalar FogSequentialForward.fog[84].dispatcher droppedJobsSLA_class_1 88958
scalar FogSequentialForward.fog[84].server[0] rho 1
scalar FogSequentialForward.fog[84].server[0] congestionRatio 0
scalar FogSequentialForward.fog[84].server[0] totalJobs 1534727
scalar FogSequentialForward.fog[84].server[0] droppedJobsQueue 96594
scalar FogSequentialForward.fog[84].server[0] droppedJobsTimout 0
scalar FogSequentialForward.fog[84].server[0] droppedJobsSLA 1022624
scalar FogSequentialForward.fog[84].server[0] droppedJobsTotal 1119218
scalar FogSequentialForward.fog[85].dispatcher localJobs 1534798
scalar FogSequentialForward.fog[85].dispatcher internalJobs 1623509
scalar FogSequentialForward.fog[85].dispatcher externalJobs 4787634
scalar FogSequentialForward.fog[85].dispatcher remoteJobs 4787934
scalar FogSequentialForward.fog[85].dispatcher probeQueries 0
scalar FogSequentialForward.fog[85].dispatcher probeAnswers 0
scalar FogSequentialForward.fog[85].dispatcher droppedJobsSLA 88411
scalar FogSequentialForward.fog[85].dispatcher jobs_class_1 6411143
scalar FogSequentialForward.fog[85].dispatcher remoteJobs_class_1 4787934
scalar FogSequentialForward.fog[85].dispatcher localJobs_class_1 1534798
scalar FogSequentialForward.fog[85].dispatcher droppedJobsSLA_class_1 88411
scalar FogSequentialForward.fog[85].server[0] rho 1
scalar FogSequentialForward.fog[85].server[0] congestionRatio 0
scalar FogSequentialForward.fog[85].server[0] totalJobs 1534798
scalar FogSequentialForward.fog[85].server[0] droppedJobsQueue 96770
scalar FogSequentialForward.fog[85].server[0] droppedJobsTimout 0
scalar FogSequentialForward.fog[85].server[0] droppedJobsSLA 1022697
scalar FogSequentialForward.fog[85].server[0] droppedJobsTotal 1119467
scalar FogSequentialForward.fog[86].dispatcher localJobs 1535456
scalar FogSequentialForward.fog[86].dispatcher internalJobs 1624393
scalar FogSequentialForward.fog[86].dispatcher externalJobs 4788986
scalar FogSequentialForward.fog[86].dispatcher remoteJobs 4790034
scalar FogSequentialForward.fog[86].dispatcher probeQueries 0
scalar FogSequentialForward.fog[86].dispatcher probeAnswers 0
scalar FogSequentialForward.fog[86].dispatcher droppedJobsSLA 87889
scalar FogSequentialForward.fog[86].dispatcher jobs_class_1 6413379
scalar FogSequentialForward.fog[86].dispatcher remoteJobs_class_1 4790034
scalar FogSequentialForward.fog[86].dispatcher localJobs_class_1 1535456
scalar FogSequentialForward.fog[86].dispatcher droppedJobsSLA_class_1 87889
scalar FogSequentialForward.fog[86].server[0] rho 1
scalar FogSequentialForward.fog[86].server[0] congestionRatio 0
scalar FogSequentialForward.fog[86].server[0] totalJobs 1535456
scalar FogSequentialForward.fog[86].server[0] droppedJobsQueue 96922
scalar FogSequentialForward.fog[86].server[0] droppedJobsTimout 0
scalar FogSequentialForward.fog[86].server[0] droppedJobsSLA 1022435
scalar FogSequentialForward.fog[86].server[0] droppedJobsTotal 1119357
scalar FogSequentialForward.fog[87].dispatcher localJobs 1535017
scalar FogSequentialForward.fog[87].dispatcher internalJobs 1621471
scalar FogSequentialForward.fog[87].dispatcher externalJobs 4789276
scalar FogSequentialForward.fog[87].dispatcher remoteJobs 4787365
scalar FogSequentialForward.fog[87].dispatcher probeQueries 0
scalar FogSequentialForward.fog[87].dispatcher probeAnswers 0
scalar FogSequentialForward.fog[87].dispatcher droppedJobsSLA 88365
scalar FogSequentialForward.fog[87].dispatcher jobs_class_1 6410747
scalar FogSequentialForward.fog[87].dispatcher remoteJobs_class_1 4787365
scalar FogSequentialForward.fog[87].dispatcher localJobs_class_1 1535017
scalar FogSequentialForward.fog[87].dispatcher droppedJobsSLA_class_1 88365
scalar FogSequentialForward.fog[87].server[0] rho 0.99999767541885
scalar FogSequentialForward.fog[87].server[0] congestionRatio 0
scalar FogSequentialForward.fog[87].server[0] totalJobs 1535017
scalar FogSequentialForward.fog[87].server[0] droppedJobsQueue 96957
scalar FogSequentialForward.fog[87].server[0] droppedJobsTimout 0
scalar FogSequentialForward.fog[87].server[0] droppedJobsSLA 1022130
scalar FogSequentialForward.fog[87].server[0] droppedJobsTotal 1119087
scalar FogSequentialForward.fog[88].dispatcher localJobs 1534580
scalar FogSequentialForward.fog[88].dispatcher internalJobs 1622545
scalar FogSequentialForward.fog[88].dispatcher externalJobs 4788465
scalar FogSequentialForward.fog[88].dispatcher remoteJobs 4787408
scalar FogSequentialForward.fog[88].dispatcher probeQueries 0
scalar FogSequentialForward.fog[88].dispatcher probeAnswers 0
scalar FogSequentialForward.fog[88].dispatcher droppedJobsSLA 89022
scalar FogSequentialForward.fog[88].dispatcher jobs_class_1 6411010
scalar FogSequentialForward.fog[88].dispatcher remoteJobs_class_1 4787408
scalar FogSequentialForward.fog[88].dispatcher localJobs_class_1 1534580
scalar FogSequentialForward.fog[88].dispatcher droppedJobsSLA_class_1 89022
scalar FogSequentialForward.fog[88].server[0] rho 1
scalar FogSequentialForward.fog[88].server[0] congestionRatio 0
scalar FogSequentialForward.fog[88].server[0] totalJobs 1534580
scalar FogSequentialForward.fog[88].server[0] droppedJobsQueue 96701
scalar FogSequentialForward.fog[88].server[0] droppedJobsTimout 0
scalar FogSequentialForward.fog[88].server[0] droppedJobsSLA 1022063
scalar FogSequentialForward.fog[88].server[0] droppedJobsTotal 1118764
scalar FogSequentialForward.fog[89].dispatcher localJobs 1534195
scalar FogSequentialForward.fog[89].dispatcher internalJobs 1623010
scalar FogSequentialForward.fog[89].dispatcher externalJobs 4786759
scalar FogSequentialForward.fog[89].dispatcher remoteJobs 4787116
scalar FogSequentialForward.fog[89].dispatcher probeQueries 0
scalar FogSequentialForward.fog[89].dispatcher probeAnswers 0
scalar FogSequentialForward.fog[89].dispatcher droppedJobsSLA 88458
scalar FogSequentialForward.fog[89].dispatcher jobs_class_1 6409769
scalar FogSequentialForward.fog[89].dispatcher remoteJobs_class_1 4787116
scalar FogSequentialForward.fog[89].dispatcher localJobs_class_1 1534195
scalar FogSequentialForward.fog[89].dispatcher droppedJobsSLA_class_1 88458
scalar FogSequentialForward.fog[89].server[0] rho 1
scalar FogSequentialForward.fog[89].server[0] congestionRatio 0
scalar FogSequentialForward.fog[89].server[0] totalJobs 1534195
scalar FogSequentialForward.fog[89].server[0] droppedJobsQueue 96917
scalar FogSequentialForward.fog[89].server[0] droppedJobsTimout 0
scalar FogSequentialForward.fog[89].server[0] droppedJobsSLA 1021832
scalar FogSequentialForward.fog[89].server[0] droppedJobsTotal 1118749
scalar FogSequentialForward.fog[90].dispatcher localJobs 1534088
scalar FogSequentialForward.fog[90].dispatcher internalJobs 1625928
scalar FogSequentialForward.fog[90].dispatcher externalJobs 4785644
scalar FogSequentialForward.fog[90].dispatcher remoteJobs 4789198
scalar FogSequentialForward.fog[90].dispatcher probeQueries 0
scalar FogSequentialForward.fog[90].dispatcher probeAnswers 0
scalar FogSequentialForward.fog[90].dispatcher droppedJobsSLA 88286
scalar FogSequentialForward.fog[90].dispatcher jobs_class_1 6411572
scalar FogSequentialForward.fog[90].dispatcher remoteJobs_class_1 4789198
scalar FogSequentialForward.fog[90].dispatcher localJobs_class_1 1534088
scalar FogSequentialForward.fog[90].dispatcher droppedJobsSLA_class_1 88286
scalar FogSequentialForward.fog[90].server[0] rho 1
scalar FogSequentialForward.fog[90].server[0] congestionRatio 0
scalar FogSequentialForward.fog[90].server[0] totalJobs 1534088
scalar FogSequentialForward.fog[90].server[0] droppedJobsQueue 97004
scalar FogSequentialForward.fog[90].server[0] droppedJobsTimout 0
scalar FogSequentialForward.fog[90].server[0] droppedJobsSLA 1021896
scalar FogSequentialForward.fog[90].server[0] droppedJobsTotal 1118900
scalar FogSequentialForward.fog[91].dispatcher localJobs 1535046
scalar FogSequentialForward.fog[91].dispatcher internalJobs 1621409
scalar FogSequentialForward.fog[91].dispatcher externalJobs 4789409
scalar FogSequentialForward.fog[91].dispatcher remoteJobs 4787453
scalar FogSequentialForward.fog[91].dispatcher probeQueries 0
scalar FogSequentialForward.fog[91].dispatcher probeAnswers 0
scalar FogSequentialForward.fog[91].dispatcher droppedJobsSLA 88319
scalar FogSequentialForward.fog[91].dispatcher jobs_class_1 6410818
scalar FogSequentialForward.fog[91].dispatcher remoteJobs_class_1 4787453
scalar FogSequentialForward.fog[91].dispatcher localJobs_class_1 1535046
scalar FogSequentialForward.fog[91].dispatcher droppedJobsSLA_class_1 88319
scalar FogSequentialForward.fog[91].server[0] rho 1
scalar FogSequentialForward.fog[91].server[0] congestionRatio 0
scalar FogSequentialForward.fog[91].server[0] totalJobs 1535046
scalar FogSequentialForward.fog[91].server[0] droppedJobsQueue 96979
scalar FogSequentialForward.fog[91].server[0] droppedJobsTimout 0
scalar FogSequentialForward.fog[91].server[0] droppedJobsSLA 1021715
scalar FogSequentialForward.fog[91].server[0] droppedJobsTotal 1118694
scalar FogSequentialForward.fog[92].dispatcher localJobs 1534913
scalar FogSequentialForward.fog[92].dispatcher internalJobs 1623276
scalar FogSequentialForward.fog[92].dispatcher externalJobs 4788571
scalar FogSequentialForward.fog[92].dispatcher remoteJobs 4788874
scalar FogSequentialForward.fog[92].dispatcher probeQueries 0
scalar FogSequentialForward.fog[92].dispatcher probeAnswers 0
scalar FogSequentialForward.fog[92].dispatcher droppedJobsSLA 88060
scalar FogSequentialForward.fog[92].dispatcher jobs_class_1 6411847
scalar FogSequentialForward.fog[92].dispatcher remoteJobs_class_1 4788874
scalar FogSequentialForward.fog[92].dispatcher localJobs_class_1 1534913
scalar FogSequentialForward.fog[92].dispatcher droppedJobsSLA_class_1 88060
scalar FogSequentialForward.fog[92].server[0] rho 1
scalar FogSequentialForward.fog[92].server[0] congestionRatio 0
scalar FogSequentialForward.fog[92].server[0] totalJobs 1534913
scalar FogSequentialForward.fog[92].server[0] droppedJobsQueue 97020
scalar FogSequentialForward.fog[92].server[0] droppedJobsTimout 0
scalar FogSequentialForward.fog[92].server[0] droppedJobsSLA 1022819
scalar FogSequentialForward.fog[92].server[0] droppedJobsTotal 1119839
scalar FogSequentialForward.fog[93].dispatcher localJobs 1535770
scalar FogSequentialForward.fog[93].dispatcher internalJobs 1623301
scalar FogSequentialForward.fog[93].dispatcher externalJobs 4788347
scalar FogSequentialForward.fog[93].dispatcher remoteJobs 4787261
scalar FogSequentialForward.fog[93].dispatcher probeQueries 0
scalar FogSequentialForward.fog[93].dispatcher probeAnswers 0
scalar FogSequentialForward.fog[93].dispatcher droppedJobsSLA 88617
scalar FogSequentialForward.fog[93].dispatcher jobs_class_1 6411648
scalar FogSequentialForward.fog[93].dispatcher remoteJobs_class_1 4787261
scalar FogSequentialForward.fog[93].dispatcher localJobs_class_1 1535770
scalar FogSequentialForward.fog[93].dispatcher droppedJobsSLA_class_1 88617
scalar FogSequentialForward.fog[93].server[0] rho 1
scalar FogSequentialForward.fog[93].server[0] congestionRatio 0
scalar FogSequentialForward.fog[93].server[0] totalJobs 1535770
scalar FogSequentialForward.fog[93].server[0] droppedJobsQueue 97201
scalar FogSequentialForward.fog[93].server[0] droppedJobsTimout 0
scalar FogSequentialForward.fog[93].server[0] droppedJobsSLA 1022146
scalar FogSequentialForward.fog[93].server[0] droppedJobsTotal 1119347
scalar FogSequentialForward.fog[94].dispatcher localJobs 1535218
scalar FogSequentialForward.fog[94].dispatcher internalJobs 1624170
scalar FogSequentialForward.fog[94].dispatcher externalJobs 4788061
scalar FogSequentialForward.fog[94].dispatcher remoteJobs 4787517
scalar FogSequentialForward.fog[94].dispatcher probeQueries 0
scalar FogSequentialForward.fog[94].dispatcher probeAnswers 0
scalar FogSequentialForward.fog[94].dispatcher droppedJobsSLA 89496
scalar FogSequentialForward.fog[94].dispatcher jobs_class_1 6412231
scalar FogSequentialForward.fog[94].dispatcher remoteJobs_class_1 4787517
scalar FogSequentialForward.fog[94].dispatcher localJobs_class_1 1535218
scalar FogSequentialForward.fog[94].dispatcher droppedJobsSLA_class_1 89496
scalar FogSequentialForward.fog[94].server[0] rho 1
scalar FogSequentialForward.fog[94].server[0] congestionRatio 0
scalar FogSequentialForward.fog[94].server[0] totalJobs 1535218
scalar FogSequentialForward.fog[94].server[0] droppedJobsQueue 97049
scalar FogSequentialForward.fog[94].server[0] droppedJobsTimout 0
scalar FogSequentialForward.fog[94].server[0] droppedJobsSLA 1022473
scalar FogSequentialForward.fog[94].server[0] droppedJobsTotal 1119522
scalar FogSequentialForward.fog[95].dispatcher localJobs 1534922
scalar FogSequentialForward.fog[95].dispatcher internalJobs 1620605
scalar FogSequentialForward.fog[95].dispatcher externalJobs 4787864
scalar FogSequentialForward.fog[95].dispatcher remoteJobs 4785355
scalar FogSequentialForward.fog[95].dispatcher probeQueries 0
scalar FogSequentialForward.fog[95].dispatcher probeAnswers 0
scalar FogSequentialForward.fog[95].dispatcher droppedJobsSLA 88192
scalar FogSequentialForward.fog[95].dispatcher jobs_class_1 6408469
scalar FogSequentialForward.fog[95].dispatcher remoteJobs_class_1 4785355
scalar FogSequentialForward.fog[95].dispatcher localJobs_class_1 1534922
scalar FogSequentialForward.fog[95].dispatcher droppedJobsSLA_class_1 88192
scalar FogSequentialForward.fog[95].server[0] rho 1
scalar FogSequentialForward.fog[95].server[0] congestionRatio 0
scalar FogSequentialForward.fog[95].server[0] totalJobs 1534922
scalar FogSequentialForward.fog[95].server[0] droppedJobsQueue 96827
scalar FogSequentialForward.fog[95].server[0] droppedJobsTimout 0
scalar FogSequentialForward.fog[95].server[0] droppedJobsSLA 1022424
scalar FogSequentialForward.fog[95].server[0] droppedJobsTotal 1119251
scalar FogSequentialForward.fog[96].dispatcher localJobs 1533729
scalar FogSequentialForward.fog[96].dispatcher internalJobs 1624259
scalar FogSequentialForward.fog[96].dispatcher externalJobs 4785578
scalar FogSequentialForward.fog[96].dispatcher remoteJobs 4787906
scalar FogSequentialForward.fog[96].dispatcher probeQueries 0
scalar FogSequentialForward.fog[96].dispatcher probeAnswers 0
scalar FogSequentialForward.fog[96].dispatcher droppedJobsSLA 88202
scalar FogSequentialForward.fog[96].dispatcher jobs_class_1 6409837
scalar FogSequentialForward.fog[96].dispatcher remoteJobs_class_1 4787906
scalar FogSequentialForward.fog[96].dispatcher localJobs_class_1 1533729
scalar FogSequentialForward.fog[96].dispatcher droppedJobsSLA_class_1 88202
scalar FogSequentialForward.fog[96].server[0] rho 1
scalar FogSequentialForward.fog[96].server[0] congestionRatio 0
scalar FogSequentialForward.fog[96].server[0] totalJobs 1533729
scalar FogSequentialForward.fog[96].server[0] droppedJobsQueue 96547
scalar FogSequentialForward.fog[96].server[0] droppedJobsTimout 0
scalar FogSequentialForward.fog[96].server[0] droppedJobsSLA 1022019
scalar FogSequentialForward.fog[96].server[0] droppedJobsTotal 1118566
scalar FogSequentialForward.fog[97].dispatcher localJobs 1535000
scalar FogSequentialForward.fog[97].dispatcher internalJobs 1624593
scalar FogSequentialForward.fog[97].dispatcher externalJobs 4790478
scalar FogSequentialForward.fog[97].dispatcher remoteJobs 4791517
scalar FogSequentialForward.fog[97].dispatcher probeQueries 0
scalar FogSequentialForward.fog[97].dispatcher probeAnswers 0
scalar FogSequentialForward.fog[97].dispatcher droppedJobsSLA 88554
scalar FogSequentialForward.fog[97].dispatcher jobs_class_1 6415071
scalar FogSequentialForward.fog[97].dispatcher remoteJobs_class_1 4791517
scalar FogSequentialForward.fog[97].dispatcher localJobs_class_1 1535000
scalar FogSequentialForward.fog[97].dispatcher droppedJobsSLA_class_1 88554
scalar FogSequentialForward.fog[97].server[0] rho 1
scalar FogSequentialForward.fog[97].server[0] congestionRatio 0
scalar FogSequentialForward.fog[97].server[0] totalJobs 1535000
scalar FogSequentialForward.fog[97].server[0] droppedJobsQueue 97099
scalar FogSequentialForward.fog[97].server[0] droppedJobsTimout 0
scalar FogSequentialForward.fog[97].server[0] droppedJobsSLA 1022919
scalar FogSequentialForward.fog[97].server[0] droppedJobsTotal 1120018
scalar FogSequentialForward.fog[98].dispatcher localJobs 1535008
scalar FogSequentialForward.fog[98].dispatcher internalJobs 1623944
scalar FogSequentialForward.fog[98].dispatcher externalJobs 4791132
scalar FogSequentialForward.fog[98].dispatcher remoteJobs 4791165
scalar FogSequentialForward.fog[98].dispatcher probeQueries 0
scalar FogSequentialForward.fog[98].dispatcher probeAnswers 0
scalar FogSequentialForward.fog[98].dispatcher droppedJobsSLA 88903
scalar FogSequentialForward.fog[98].dispatcher jobs_class_1 6415076
scalar FogSequentialForward.fog[98].dispatcher remoteJobs_class_1 4791165
scalar FogSequentialForward.fog[98].dispatcher localJobs_class_1 1535008
scalar FogSequentialForward.fog[98].dispatcher droppedJobsSLA_class_1 88903
scalar FogSequentialForward.fog[98].server[0] rho 1
scalar FogSequentialForward.fog[98].server[0] congestionRatio 0
scalar FogSequentialForward.fog[98].server[0] totalJobs 1535008
scalar FogSequentialForward.fog[98].server[0] droppedJobsQueue 96925
scalar FogSequentialForward.fog[98].server[0] droppedJobsTimout 0
scalar FogSequentialForward.fog[98].server[0] droppedJobsSLA 1021929
scalar FogSequentialForward.fog[98].server[0] droppedJobsTotal 1118854
scalar FogSequentialForward.fog[99].dispatcher localJobs 1533964
scalar FogSequentialForward.fog[99].dispatcher internalJobs 1624634
scalar FogSequentialForward.fog[99].dispatcher externalJobs 4785841
scalar FogSequentialForward.fog[99].dispatcher remoteJobs 4788381
scalar FogSequentialForward.fog[99].dispatcher probeQueries 0
scalar FogSequentialForward.fog[99].dispatcher probeAnswers 0
scalar FogSequentialForward.fog[99].dispatcher droppedJobsSLA 88130
scalar FogSequentialForward.fog[99].dispatcher jobs_class_1 6410475
scalar FogSequentialForward.fog[99].dispatcher remoteJobs_class_1 4788381
scalar FogSequentialForward.fog[99].dispatcher localJobs_class_1 1533964
scalar FogSequentialForward.fog[99].dispatcher droppedJobsSLA_class_1 88130
scalar FogSequentialForward.fog[99].server[0] rho 1
scalar FogSequentialForward.fog[99].server[0] congestionRatio 0
scalar FogSequentialForward.fog[99].server[0] totalJobs 1533964
scalar FogSequentialForward.fog[99].server[0] droppedJobsQueue 96685
scalar FogSequentialForward.fog[99].server[0] droppedJobsTimout 0
scalar FogSequentialForward.fog[99].server[0] droppedJobsSLA 1021993
scalar FogSequentialForward.fog[99].server[0] droppedJobsTotal 1118678
scalar FogSequentialForward.sink avg_responseTime_1 0.1463725497785
scalar FogSequentialForward.sink p90_responseTime_1 0.015739002333
scalar FogSequentialForward.sink med_responseTime_1 0.015739002333
scalar FogSequentialForward.sink avg_delayTime_1 0
scalar FogSequentialForward.sink p90_delayTime_1 0
scalar FogSequentialForward.sink med_delayTime_1 0
scalar FogSequentialForward.sink avg_queuingTime_1 0.1201000442831
scalar FogSequentialForward.sink p90_queuingTime_1 0
scalar FogSequentialForward.sink med_queuingTime_1 0
scalar FogSequentialForward.sink avg_serviceTime_1 0.016736290205142
scalar FogSequentialForward.sink p90_serviceTime_1 0.014761328794
scalar FogSequentialForward.sink med_serviceTime_1 0.014761328794
scalar FogSequentialForward.sink avg_balancerTime_1 0.0095362152885155
scalar FogSequentialForward.sink p90_balancerTime_1 0
scalar FogSequentialForward.sink med_balancerTime_1 0
scalar FogSequentialForward.sink avg_balancerCount_1 1.5710308557083
scalar FogSequentialForward.sink p90_balancerCount_1 1
scalar FogSequentialForward.sink med_balancerCount_1 1

