version 2
run Fog-mul_10-rho_09-thr_6-1-20190714-07:58:49-110384
attr configname Fog-mul_10-rho_09-thr_6
attr datetime 20190714-07:58:49
attr experiment Fog-mul_10-rho_09-thr_6
attr inifile FogSequentialForward.ini
attr iterationvars ""
attr iterationvarsf ""
attr measurement ""
attr network FogSequentialForward
attr processid 110384
attr repetition 1
attr replication #1
attr resultdir results
attr runnumber 1
attr seedset 1
param FogSequentialForward.proctimeMul 1.0
param FogSequentialForward.rho 0.9
param FogSequentialForward.fog[*].dispatcher.thr 6
param FogSequentialForward.nSources 100
param FogSequentialForward.rho 0.9
param FogSequentialForward.proctimeMul 1.0
param FogSequentialForward.source[*].appId 1
param FogSequentialForward.source[*].realTime true
param FogSequentialForward.source[*].multiHop true
param FogSequentialForward.fog[*].nServers 1
param FogSequentialForward.fog[*].dispatcher.fanOut 1
param FogSequentialForward.fog[*].server[*].timeSlice -1s
param FogSequentialForward.fog[*].server[*].timeout -1s
param FogSequentialForward.fog[*].server[*].capacity 20
param FogSequentialForward.fog[*].server[*].fifo true
param FogSequentialForward.fog[*].server[*].maxServiceTime -1s
param FogSequentialForward.fog[*].dispatcher.thr 1

scalar FogSequentialForward.fog[0].dispatcher localJobs 14812
scalar FogSequentialForward.fog[0].dispatcher internalJobs 16270
scalar FogSequentialForward.fog[0].dispatcher externalJobs 6022050
scalar FogSequentialForward.fog[0].dispatcher remoteJobs 6022180
scalar FogSequentialForward.fog[0].dispatcher probeQueries 0
scalar FogSequentialForward.fog[0].dispatcher probeAnswers 0
scalar FogSequentialForward.fog[0].dispatcher droppedJobsSLA 1328
scalar FogSequentialForward.fog[0].dispatcher jobs_class_1 6038320
scalar FogSequentialForward.fog[0].dispatcher remoteJobs_class_1 6022180
scalar FogSequentialForward.fog[0].dispatcher localJobs_class_1 14812
scalar FogSequentialForward.fog[0].dispatcher droppedJobsSLA_class_1 1328
scalar FogSequentialForward.fog[0].server[0] rho 0.99999672174454
scalar FogSequentialForward.fog[0].server[0] congestionRatio 0
scalar FogSequentialForward.fog[0].server[0] totalJobs 14812
scalar FogSequentialForward.fog[0].server[0] droppedJobsQueue 778
scalar FogSequentialForward.fog[0].server[0] droppedJobsTimout 0
scalar FogSequentialForward.fog[0].server[0] droppedJobsSLA 9140
scalar FogSequentialForward.fog[0].server[0] droppedJobsTotal 9918
scalar FogSequentialForward.fog[1].dispatcher localJobs 14821
scalar FogSequentialForward.fog[1].dispatcher internalJobs 16366
scalar FogSequentialForward.fog[1].dispatcher externalJobs 6027343
scalar FogSequentialForward.fog[1].dispatcher remoteJobs 6027461
scalar FogSequentialForward.fog[1].dispatcher probeQueries 0
scalar FogSequentialForward.fog[1].dispatcher probeAnswers 0
scalar FogSequentialForward.fog[1].dispatcher droppedJobsSLA 1427
scalar FogSequentialForward.fog[1].dispatcher jobs_class_1 6043709
scalar FogSequentialForward.fog[1].dispatcher remoteJobs_class_1 6027461
scalar FogSequentialForward.fog[1].dispatcher localJobs_class_1 14821
scalar FogSequentialForward.fog[1].dispatcher droppedJobsSLA_class_1 1427
scalar FogSequentialForward.fog[1].server[0] rho 0.99999862909317
scalar FogSequentialForward.fog[1].server[0] congestionRatio 0
scalar FogSequentialForward.fog[1].server[0] totalJobs 14821
scalar FogSequentialForward.fog[1].server[0] droppedJobsQueue 780
scalar FogSequentialForward.fog[1].server[0] droppedJobsTimout 0
scalar FogSequentialForward.fog[1].server[0] droppedJobsSLA 9078
scalar FogSequentialForward.fog[1].server[0] droppedJobsTotal 9858
scalar FogSequentialForward.fog[2].dispatcher localJobs 14840
scalar FogSequentialForward.fog[2].dispatcher internalJobs 16274
scalar FogSequentialForward.fog[2].dispatcher externalJobs 6023793
scalar FogSequentialForward.fog[2].dispatcher remoteJobs 6023861
scalar FogSequentialForward.fog[2].dispatcher probeQueries 0
scalar FogSequentialForward.fog[2].dispatcher probeAnswers 0
scalar FogSequentialForward.fog[2].dispatcher droppedJobsSLA 1366
scalar FogSequentialForward.fog[2].dispatcher jobs_class_1 6040067
scalar FogSequentialForward.fog[2].dispatcher remoteJobs_class_1 6023861
scalar FogSequentialForward.fog[2].dispatcher localJobs_class_1 14840
scalar FogSequentialForward.fog[2].dispatcher droppedJobsSLA_class_1 1366
scalar FogSequentialForward.fog[2].server[0] rho 0.99999707937241
scalar FogSequentialForward.fog[2].server[0] congestionRatio 0
scalar FogSequentialForward.fog[2].server[0] totalJobs 14840
scalar FogSequentialForward.fog[2].server[0] droppedJobsQueue 778
scalar FogSequentialForward.fog[2].server[0] droppedJobsTimout 0
scalar FogSequentialForward.fog[2].server[0] droppedJobsSLA 9146
scalar FogSequentialForward.fog[2].server[0] droppedJobsTotal 9924
scalar FogSequentialForward.fog[3].dispatcher localJobs 14868
scalar FogSequentialForward.fog[3].dispatcher internalJobs 16363
scalar FogSequentialForward.fog[3].dispatcher externalJobs 6026894
scalar FogSequentialForward.fog[3].dispatcher remoteJobs 6027005
scalar FogSequentialForward.fog[3].dispatcher probeQueries 0
scalar FogSequentialForward.fog[3].dispatcher probeAnswers 0
scalar FogSequentialForward.fog[3].dispatcher droppedJobsSLA 1384
scalar FogSequentialForward.fog[3].dispatcher jobs_class_1 6043257
scalar FogSequentialForward.fog[3].dispatcher remoteJobs_class_1 6027005
scalar FogSequentialForward.fog[3].dispatcher localJobs_class_1 14868
scalar FogSequentialForward.fog[3].dispatcher droppedJobsSLA_class_1 1384
scalar FogSequentialForward.fog[3].server[0] rho 0.99999618530273
scalar FogSequentialForward.fog[3].server[0] congestionRatio 0
scalar FogSequentialForward.fog[3].server[0] totalJobs 14868
scalar FogSequentialForward.fog[3].server[0] droppedJobsQueue 780
scalar FogSequentialForward.fog[3].server[0] droppedJobsTimout 0
scalar FogSequentialForward.fog[3].server[0] droppedJobsSLA 9145
scalar FogSequentialForward.fog[3].server[0] droppedJobsTotal 9925
scalar FogSequentialForward.fog[4].dispatcher localJobs 14794
scalar FogSequentialForward.fog[4].dispatcher internalJobs 16294
scalar FogSequentialForward.fog[4].dispatcher externalJobs 6022139
scalar FogSequentialForward.fog[4].dispatcher remoteJobs 6022306
scalar FogSequentialForward.fog[4].dispatcher probeQueries 0
scalar FogSequentialForward.fog[4].dispatcher probeAnswers 0
scalar FogSequentialForward.fog[4].dispatcher droppedJobsSLA 1333
scalar FogSequentialForward.fog[4].dispatcher jobs_class_1 6038433
scalar FogSequentialForward.fog[4].dispatcher remoteJobs_class_1 6022306
scalar FogSequentialForward.fog[4].dispatcher localJobs_class_1 14794
scalar FogSequentialForward.fog[4].dispatcher droppedJobsSLA_class_1 1333
scalar FogSequentialForward.fog[4].server[0] rho 0.99999791383743
scalar FogSequentialForward.fog[4].server[0] congestionRatio 0
scalar FogSequentialForward.fog[4].server[0] totalJobs 14794
scalar FogSequentialForward.fog[4].server[0] droppedJobsQueue 777
scalar FogSequentialForward.fog[4].server[0] droppedJobsTimout 0
scalar FogSequentialForward.fog[4].server[0] droppedJobsSLA 9128
scalar FogSequentialForward.fog[4].server[0] droppedJobsTotal 9905
scalar FogSequentialForward.fog[5].dispatcher localJobs 14829
scalar FogSequentialForward.fog[5].dispatcher internalJobs 16082
scalar FogSequentialForward.fog[5].dispatcher externalJobs 6027407
scalar FogSequentialForward.fog[5].dispatcher remoteJobs 6027252
scalar FogSequentialForward.fog[5].dispatcher probeQueries 0
scalar FogSequentialForward.fog[5].dispatcher probeAnswers 0
scalar FogSequentialForward.fog[5].dispatcher droppedJobsSLA 1408
scalar FogSequentialForward.fog[5].dispatcher jobs_class_1 6043489
scalar FogSequentialForward.fog[5].dispatcher remoteJobs_class_1 6027252
scalar FogSequentialForward.fog[5].dispatcher localJobs_class_1 14829
scalar FogSequentialForward.fog[5].dispatcher droppedJobsSLA_class_1 1408
scalar FogSequentialForward.fog[5].server[0] rho 0.99997693300247
scalar FogSequentialForward.fog[5].server[0] congestionRatio 0
scalar FogSequentialForward.fog[5].server[0] totalJobs 14829
scalar FogSequentialForward.fog[5].server[0] droppedJobsQueue 778
scalar FogSequentialForward.fog[5].server[0] droppedJobsTimout 0
scalar FogSequentialForward.fog[5].server[0] droppedJobsSLA 9145
scalar FogSequentialForward.fog[5].server[0] droppedJobsTotal 9923
scalar FogSequentialForward.fog[6].dispatcher localJobs 14851
scalar FogSequentialForward.fog[6].dispatcher internalJobs 16111
scalar FogSequentialForward.fog[6].dispatcher externalJobs 6025945
scalar FogSequentialForward.fog[6].dispatcher remoteJobs 6025781
scalar FogSequentialForward.fog[6].dispatcher probeQueries 0
scalar FogSequentialForward.fog[6].dispatcher probeAnswers 0
scalar FogSequentialForward.fog[6].dispatcher droppedJobsSLA 1424
scalar FogSequentialForward.fog[6].dispatcher jobs_class_1 6042056
scalar FogSequentialForward.fog[6].dispatcher remoteJobs_class_1 6025781
scalar FogSequentialForward.fog[6].dispatcher localJobs_class_1 14851
scalar FogSequentialForward.fog[6].dispatcher droppedJobsSLA_class_1 1424
scalar FogSequentialForward.fog[6].server[0] rho 0.99999612569809
scalar FogSequentialForward.fog[6].server[0] congestionRatio 0
scalar FogSequentialForward.fog[6].server[0] totalJobs 14851
scalar FogSequentialForward.fog[6].server[0] droppedJobsQueue 782
scalar FogSequentialForward.fog[6].server[0] droppedJobsTimout 0
scalar FogSequentialForward.fog[6].server[0] droppedJobsSLA 9183
scalar FogSequentialForward.fog[6].server[0] droppedJobsTotal 9965
scalar FogSequentialForward.fog[7].dispatcher localJobs 14773
scalar FogSequentialForward.fog[7].dispatcher internalJobs 16264
scalar FogSequentialForward.fog[7].dispatcher externalJobs 6018813
scalar FogSequentialForward.fog[7].dispatcher remoteJobs 6018916
scalar FogSequentialForward.fog[7].dispatcher probeQueries 0
scalar FogSequentialForward.fog[7].dispatcher probeAnswers 0
scalar FogSequentialForward.fog[7].dispatcher droppedJobsSLA 1388
scalar FogSequentialForward.fog[7].dispatcher jobs_class_1 6035077
scalar FogSequentialForward.fog[7].dispatcher remoteJobs_class_1 6018916
scalar FogSequentialForward.fog[7].dispatcher localJobs_class_1 14773
scalar FogSequentialForward.fog[7].dispatcher droppedJobsSLA_class_1 1388
scalar FogSequentialForward.fog[7].server[0] rho 0.9999960064888
scalar FogSequentialForward.fog[7].server[0] congestionRatio 0
scalar FogSequentialForward.fog[7].server[0] totalJobs 14773
scalar FogSequentialForward.fog[7].server[0] droppedJobsQueue 778
scalar FogSequentialForward.fog[7].server[0] droppedJobsTimout 0
scalar FogSequentialForward.fog[7].server[0] droppedJobsSLA 9091
scalar FogSequentialForward.fog[7].server[0] droppedJobsTotal 9869
scalar FogSequentialForward.fog[8].dispatcher localJobs 14853
scalar FogSequentialForward.fog[8].dispatcher internalJobs 15991
scalar FogSequentialForward.fog[8].dispatcher externalJobs 6020868
scalar FogSequentialForward.fog[8].dispatcher remoteJobs 6020649
scalar FogSequentialForward.fog[8].dispatcher probeQueries 0
scalar FogSequentialForward.fog[8].dispatcher probeAnswers 0
scalar FogSequentialForward.fog[8].dispatcher droppedJobsSLA 1357
scalar FogSequentialForward.fog[8].dispatcher jobs_class_1 6036859
scalar FogSequentialForward.fog[8].dispatcher remoteJobs_class_1 6020649
scalar FogSequentialForward.fog[8].dispatcher localJobs_class_1 14853
scalar FogSequentialForward.fog[8].dispatcher droppedJobsSLA_class_1 1357
scalar FogSequentialForward.fog[8].server[0] rho 0.99999731779099
scalar FogSequentialForward.fog[8].server[0] congestionRatio 0
scalar FogSequentialForward.fog[8].server[0] totalJobs 14853
scalar FogSequentialForward.fog[8].server[0] droppedJobsQueue 778
scalar FogSequentialForward.fog[8].server[0] droppedJobsTimout 0
scalar FogSequentialForward.fog[8].server[0] droppedJobsSLA 9120
scalar FogSequentialForward.fog[8].server[0] droppedJobsTotal 9898
scalar FogSequentialForward.fog[9].dispatcher localJobs 14930
scalar FogSequentialForward.fog[9].dispatcher internalJobs 16389
scalar FogSequentialForward.fog[9].dispatcher externalJobs 6023149
scalar FogSequentialForward.fog[9].dispatcher remoteJobs 6023197
scalar FogSequentialForward.fog[9].dispatcher probeQueries 0
scalar FogSequentialForward.fog[9].dispatcher probeAnswers 0
scalar FogSequentialForward.fog[9].dispatcher droppedJobsSLA 1411
scalar FogSequentialForward.fog[9].dispatcher jobs_class_1 6039538
scalar FogSequentialForward.fog[9].dispatcher remoteJobs_class_1 6023197
scalar FogSequentialForward.fog[9].dispatcher localJobs_class_1 14930
scalar FogSequentialForward.fog[9].dispatcher droppedJobsSLA_class_1 1411
scalar FogSequentialForward.fog[9].server[0] rho 0.99999660253525
scalar FogSequentialForward.fog[9].server[0] congestionRatio 0
scalar FogSequentialForward.fog[9].server[0] totalJobs 14930
scalar FogSequentialForward.fog[9].server[0] droppedJobsQueue 783
scalar FogSequentialForward.fog[9].server[0] droppedJobsTimout 0
scalar FogSequentialForward.fog[9].server[0] droppedJobsSLA 9211
scalar FogSequentialForward.fog[9].server[0] droppedJobsTotal 9994
scalar FogSequentialForward.fog[10].dispatcher localJobs 14824
scalar FogSequentialForward.fog[10].dispatcher internalJobs 16093
scalar FogSequentialForward.fog[10].dispatcher externalJobs 6022557
scalar FogSequentialForward.fog[10].dispatcher remoteJobs 6022403
scalar FogSequentialForward.fog[10].dispatcher probeQueries 0
scalar FogSequentialForward.fog[10].dispatcher probeAnswers 0
scalar FogSequentialForward.fog[10].dispatcher droppedJobsSLA 1423
scalar FogSequentialForward.fog[10].dispatcher jobs_class_1 6038650
scalar FogSequentialForward.fog[10].dispatcher remoteJobs_class_1 6022403
scalar FogSequentialForward.fog[10].dispatcher localJobs_class_1 14824
scalar FogSequentialForward.fog[10].dispatcher droppedJobsSLA_class_1 1423
scalar FogSequentialForward.fog[10].server[0] rho 0.99999678134918
scalar FogSequentialForward.fog[10].server[0] congestionRatio 0
scalar FogSequentialForward.fog[10].server[0] totalJobs 14824
scalar FogSequentialForward.fog[10].server[0] droppedJobsQueue 779
scalar FogSequentialForward.fog[10].server[0] droppedJobsTimout 0
scalar FogSequentialForward.fog[10].server[0] droppedJobsSLA 9145
scalar FogSequentialForward.fog[10].server[0] droppedJobsTotal 9924
scalar FogSequentialForward.fog[11].dispatcher localJobs 14836
scalar FogSequentialForward.fog[11].dispatcher internalJobs 16012
scalar FogSequentialForward.fog[11].dispatcher externalJobs 6022182
scalar FogSequentialForward.fog[11].dispatcher remoteJobs 6022048
scalar FogSequentialForward.fog[11].dispatcher probeQueries 0
scalar FogSequentialForward.fog[11].dispatcher probeAnswers 0
scalar FogSequentialForward.fog[11].dispatcher droppedJobsSLA 1310
scalar FogSequentialForward.fog[11].dispatcher jobs_class_1 6038194
scalar FogSequentialForward.fog[11].dispatcher remoteJobs_class_1 6022048
scalar FogSequentialForward.fog[11].dispatcher localJobs_class_1 14836
scalar FogSequentialForward.fog[11].dispatcher droppedJobsSLA_class_1 1310
scalar FogSequentialForward.fog[11].server[0] rho 0.99999743700027
scalar FogSequentialForward.fog[11].server[0] congestionRatio 0
scalar FogSequentialForward.fog[11].server[0] totalJobs 14836
scalar FogSequentialForward.fog[11].server[0] droppedJobsQueue 777
scalar FogSequentialForward.fog[11].server[0] droppedJobsTimout 0
scalar FogSequentialForward.fog[11].server[0] droppedJobsSLA 9149
scalar FogSequentialForward.fog[11].server[0] droppedJobsTotal 9926
scalar FogSequentialForward.fog[12].dispatcher localJobs 14857
scalar FogSequentialForward.fog[12].dispatcher internalJobs 16196
scalar FogSequentialForward.fog[12].dispatcher externalJobs 6022406
scalar FogSequentialForward.fog[12].dispatcher remoteJobs 6022367
scalar FogSequentialForward.fog[12].dispatcher probeQueries 0
scalar FogSequentialForward.fog[12].dispatcher probeAnswers 0
scalar FogSequentialForward.fog[12].dispatcher droppedJobsSLA 1378
scalar FogSequentialForward.fog[12].dispatcher jobs_class_1 6038602
scalar FogSequentialForward.fog[12].dispatcher remoteJobs_class_1 6022367
scalar FogSequentialForward.fog[12].dispatcher localJobs_class_1 14857
scalar FogSequentialForward.fog[12].dispatcher droppedJobsSLA_class_1 1378
scalar FogSequentialForward.fog[12].server[0] rho 0.99999642372131
scalar FogSequentialForward.fog[12].server[0] congestionRatio 0
scalar FogSequentialForward.fog[12].server[0] totalJobs 14857
scalar FogSequentialForward.fog[12].server[0] droppedJobsQueue 780
scalar FogSequentialForward.fog[12].server[0] droppedJobsTimout 0
scalar FogSequentialForward.fog[12].server[0] droppedJobsSLA 9163
scalar FogSequentialForward.fog[12].server[0] droppedJobsTotal 9943
scalar FogSequentialForward.fog[13].dispatcher localJobs 14847
scalar FogSequentialForward.fog[13].dispatcher internalJobs 16597
scalar FogSequentialForward.fog[13].dispatcher externalJobs 6029855
scalar FogSequentialForward.fog[13].dispatcher remoteJobs 6030260
scalar FogSequentialForward.fog[13].dispatcher probeQueries 0
scalar FogSequentialForward.fog[13].dispatcher probeAnswers 0
scalar FogSequentialForward.fog[13].dispatcher droppedJobsSLA 1345
scalar FogSequentialForward.fog[13].dispatcher jobs_class_1 6046452
scalar FogSequentialForward.fog[13].dispatcher remoteJobs_class_1 6030260
scalar FogSequentialForward.fog[13].dispatcher localJobs_class_1 14847
scalar FogSequentialForward.fog[13].dispatcher droppedJobsSLA_class_1 1345
scalar FogSequentialForward.fog[13].server[0] rho 0.99999529123306
scalar FogSequentialForward.fog[13].server[0] congestionRatio 0
scalar FogSequentialForward.fog[13].server[0] totalJobs 14847
scalar FogSequentialForward.fog[13].server[0] droppedJobsQueue 781
scalar FogSequentialForward.fog[13].server[0] droppedJobsTimout 0
scalar FogSequentialForward.fog[13].server[0] droppedJobsSLA 9138
scalar FogSequentialForward.fog[13].server[0] droppedJobsTotal 9919
scalar FogSequentialForward.fog[14].dispatcher localJobs 14817
scalar FogSequentialForward.fog[14].dispatcher internalJobs 15965
scalar FogSequentialForward.fog[14].dispatcher externalJobs 6021763
scalar FogSequentialForward.fog[14].dispatcher remoteJobs 6021595
scalar FogSequentialForward.fog[14].dispatcher probeQueries 0
scalar FogSequentialForward.fog[14].dispatcher probeAnswers 0
scalar FogSequentialForward.fog[14].dispatcher droppedJobsSLA 1316
scalar FogSequentialForward.fog[14].dispatcher jobs_class_1 6037728
scalar FogSequentialForward.fog[14].dispatcher remoteJobs_class_1 6021595
scalar FogSequentialForward.fog[14].dispatcher localJobs_class_1 14817
scalar FogSequentialForward.fog[14].dispatcher droppedJobsSLA_class_1 1316
scalar FogSequentialForward.fog[14].server[0] rho 0.99999731779099
scalar FogSequentialForward.fog[14].server[0] congestionRatio 0
scalar FogSequentialForward.fog[14].server[0] totalJobs 14817
scalar FogSequentialForward.fog[14].server[0] droppedJobsQueue 781
scalar FogSequentialForward.fog[14].server[0] droppedJobsTimout 0
scalar FogSequentialForward.fog[14].server[0] droppedJobsSLA 9159
scalar FogSequentialForward.fog[14].server[0] droppedJobsTotal 9940
scalar FogSequentialForward.fog[15].dispatcher localJobs 14875
scalar FogSequentialForward.fog[15].dispatcher internalJobs 16305
scalar FogSequentialForward.fog[15].dispatcher externalJobs 6021801
scalar FogSequentialForward.fog[15].dispatcher remoteJobs 6021824
scalar FogSequentialForward.fog[15].dispatcher probeQueries 0
scalar FogSequentialForward.fog[15].dispatcher probeAnswers 0
scalar FogSequentialForward.fog[15].dispatcher droppedJobsSLA 1407
scalar FogSequentialForward.fog[15].dispatcher jobs_class_1 6038106
scalar FogSequentialForward.fog[15].dispatcher remoteJobs_class_1 6021824
scalar FogSequentialForward.fog[15].dispatcher localJobs_class_1 14875
scalar FogSequentialForward.fog[15].dispatcher droppedJobsSLA_class_1 1407
scalar FogSequentialForward.fog[15].server[0] rho 0.99999696016312
scalar FogSequentialForward.fog[15].server[0] congestionRatio 0
scalar FogSequentialForward.fog[15].server[0] totalJobs 14875
scalar FogSequentialForward.fog[15].server[0] droppedJobsQueue 780
scalar FogSequentialForward.fog[15].server[0] droppedJobsTimout 0
scalar FogSequentialForward.fog[15].server[0] droppedJobsSLA 9191
scalar FogSequentialForward.fog[15].server[0] droppedJobsTotal 9971
scalar FogSequentialForward.fog[16].dispatcher localJobs 14833
scalar FogSequentialForward.fog[16].dispatcher internalJobs 16279
scalar FogSequentialForward.fog[16].dispatcher externalJobs 6024325
scalar FogSequentialForward.fog[16].dispatcher remoteJobs 6024357
scalar FogSequentialForward.fog[16].dispatcher probeQueries 0
scalar FogSequentialForward.fog[16].dispatcher probeAnswers 0
scalar FogSequentialForward.fog[16].dispatcher droppedJobsSLA 1414
scalar FogSequentialForward.fog[16].dispatcher jobs_class_1 6040604
scalar FogSequentialForward.fog[16].dispatcher remoteJobs_class_1 6024357
scalar FogSequentialForward.fog[16].dispatcher localJobs_class_1 14833
scalar FogSequentialForward.fog[16].dispatcher droppedJobsSLA_class_1 1414
scalar FogSequentialForward.fog[16].server[0] rho 0.99999696016312
scalar FogSequentialForward.fog[16].server[0] congestionRatio 0
scalar FogSequentialForward.fog[16].server[0] totalJobs 14833
scalar FogSequentialForward.fog[16].server[0] droppedJobsQueue 779
scalar FogSequentialForward.fog[16].server[0] droppedJobsTimout 0
scalar FogSequentialForward.fog[16].server[0] droppedJobsSLA 9138
scalar FogSequentialForward.fog[16].server[0] droppedJobsTotal 9917
scalar FogSequentialForward.fog[17].dispatcher localJobs 14806
scalar FogSequentialForward.fog[17].dispatcher internalJobs 16255
scalar FogSequentialForward.fog[17].dispatcher externalJobs 6024424
scalar FogSequentialForward.fog[17].dispatcher remoteJobs 6024460
scalar FogSequentialForward.fog[17].dispatcher probeQueries 0
scalar FogSequentialForward.fog[17].dispatcher probeAnswers 0
scalar FogSequentialForward.fog[17].dispatcher droppedJobsSLA 1413
scalar FogSequentialForward.fog[17].dispatcher jobs_class_1 6040679
scalar FogSequentialForward.fog[17].dispatcher remoteJobs_class_1 6024460
scalar FogSequentialForward.fog[17].dispatcher localJobs_class_1 14806
scalar FogSequentialForward.fog[17].dispatcher droppedJobsSLA_class_1 1413
scalar FogSequentialForward.fog[17].server[0] rho 0.9999971985817
scalar FogSequentialForward.fog[17].server[0] congestionRatio 0
scalar FogSequentialForward.fog[17].server[0] totalJobs 14806
scalar FogSequentialForward.fog[17].server[0] droppedJobsQueue 777
scalar FogSequentialForward.fog[17].server[0] droppedJobsTimout 0
scalar FogSequentialForward.fog[17].server[0] droppedJobsSLA 9105
scalar FogSequentialForward.fog[17].server[0] droppedJobsTotal 9882
scalar FogSequentialForward.fog[18].dispatcher localJobs 14847
scalar FogSequentialForward.fog[18].dispatcher internalJobs 16256
scalar FogSequentialForward.fog[18].dispatcher externalJobs 6025294
scalar FogSequentialForward.fog[18].dispatcher remoteJobs 6025363
scalar FogSequentialForward.fog[18].dispatcher probeQueries 0
scalar FogSequentialForward.fog[18].dispatcher probeAnswers 0
scalar FogSequentialForward.fog[18].dispatcher droppedJobsSLA 1340
scalar FogSequentialForward.fog[18].dispatcher jobs_class_1 6041550
scalar FogSequentialForward.fog[18].dispatcher remoteJobs_class_1 6025363
scalar FogSequentialForward.fog[18].dispatcher localJobs_class_1 14847
scalar FogSequentialForward.fog[18].dispatcher droppedJobsSLA_class_1 1340
scalar FogSequentialForward.fog[18].server[0] rho 0.99999707937241
scalar FogSequentialForward.fog[18].server[0] congestionRatio 0
scalar FogSequentialForward.fog[18].server[0] totalJobs 14847
scalar FogSequentialForward.fog[18].server[0] droppedJobsQueue 780
scalar FogSequentialForward.fog[18].server[0] droppedJobsTimout 0
scalar FogSequentialForward.fog[18].server[0] droppedJobsSLA 9183
scalar FogSequentialForward.fog[18].server[0] droppedJobsTotal 9963
scalar FogSequentialForward.fog[19].dispatcher localJobs 14841
scalar FogSequentialForward.fog[19].dispatcher internalJobs 16362
scalar FogSequentialForward.fog[19].dispatcher externalJobs 6023330
scalar FogSequentialForward.fog[19].dispatcher remoteJobs 6023430
scalar FogSequentialForward.fog[19].dispatcher probeQueries 0
scalar FogSequentialForward.fog[19].dispatcher probeAnswers 0
scalar FogSequentialForward.fog[19].dispatcher droppedJobsSLA 1421
scalar FogSequentialForward.fog[19].dispatcher jobs_class_1 6039692
scalar FogSequentialForward.fog[19].dispatcher remoteJobs_class_1 6023430
scalar FogSequentialForward.fog[19].dispatcher localJobs_class_1 14841
scalar FogSequentialForward.fog[19].dispatcher droppedJobsSLA_class_1 1421
scalar FogSequentialForward.fog[19].server[0] rho 0.99999630451202
scalar FogSequentialForward.fog[19].server[0] congestionRatio 0
scalar FogSequentialForward.fog[19].server[0] totalJobs 14841
scalar FogSequentialForward.fog[19].server[0] droppedJobsQueue 780
scalar FogSequentialForward.fog[19].server[0] droppedJobsTimout 0
scalar FogSequentialForward.fog[19].server[0] droppedJobsSLA 9138
scalar FogSequentialForward.fog[19].server[0] droppedJobsTotal 9918
scalar FogSequentialForward.fog[20].dispatcher localJobs 14785
scalar FogSequentialForward.fog[20].dispatcher internalJobs 16351
scalar FogSequentialForward.fog[20].dispatcher externalJobs 6021869
scalar FogSequentialForward.fog[20].dispatcher remoteJobs 6022069
scalar FogSequentialForward.fog[20].dispatcher probeQueries 0
scalar FogSequentialForward.fog[20].dispatcher probeAnswers 0
scalar FogSequentialForward.fog[20].dispatcher droppedJobsSLA 1366
scalar FogSequentialForward.fog[20].dispatcher jobs_class_1 6038220
scalar FogSequentialForward.fog[20].dispatcher remoteJobs_class_1 6022069
scalar FogSequentialForward.fog[20].dispatcher localJobs_class_1 14785
scalar FogSequentialForward.fog[20].dispatcher droppedJobsSLA_class_1 1366
scalar FogSequentialForward.fog[20].server[0] rho 0.99999505281448
scalar FogSequentialForward.fog[20].server[0] congestionRatio 0
scalar FogSequentialForward.fog[20].server[0] totalJobs 14785
scalar FogSequentialForward.fog[20].server[0] droppedJobsQueue 775
scalar FogSequentialForward.fog[20].server[0] droppedJobsTimout 0
scalar FogSequentialForward.fog[20].server[0] droppedJobsSLA 9129
scalar FogSequentialForward.fog[20].server[0] droppedJobsTotal 9904
scalar FogSequentialForward.fog[21].dispatcher localJobs 14819
scalar FogSequentialForward.fog[21].dispatcher internalJobs 16317
scalar FogSequentialForward.fog[21].dispatcher externalJobs 6025861
scalar FogSequentialForward.fog[21].dispatcher remoteJobs 6025929
scalar FogSequentialForward.fog[21].dispatcher probeQueries 0
scalar FogSequentialForward.fog[21].dispatcher probeAnswers 0
scalar FogSequentialForward.fog[21].dispatcher droppedJobsSLA 1430
scalar FogSequentialForward.fog[21].dispatcher jobs_class_1 6042178
scalar FogSequentialForward.fog[21].dispatcher remoteJobs_class_1 6025929
scalar FogSequentialForward.fog[21].dispatcher localJobs_class_1 14819
scalar FogSequentialForward.fog[21].dispatcher droppedJobsSLA_class_1 1430
scalar FogSequentialForward.fog[21].server[0] rho 0.99999707937241
scalar FogSequentialForward.fog[21].server[0] congestionRatio 0
scalar FogSequentialForward.fog[21].server[0] totalJobs 14819
scalar FogSequentialForward.fog[21].server[0] droppedJobsQueue 779
scalar FogSequentialForward.fog[21].server[0] droppedJobsTimout 0
scalar FogSequentialForward.fog[21].server[0] droppedJobsSLA 9108
scalar FogSequentialForward.fog[21].server[0] droppedJobsTotal 9887
scalar FogSequentialForward.fog[22].dispatcher localJobs 14789
scalar FogSequentialForward.fog[22].dispatcher internalJobs 16357
scalar FogSequentialForward.fog[22].dispatcher externalJobs 6016467
scalar FogSequentialForward.fog[22].dispatcher remoteJobs 6016580
scalar FogSequentialForward.fog[22].dispatcher probeQueries 0
scalar FogSequentialForward.fog[22].dispatcher probeAnswers 0
scalar FogSequentialForward.fog[22].dispatcher droppedJobsSLA 1455
scalar FogSequentialForward.fog[22].dispatcher jobs_class_1 6032824
scalar FogSequentialForward.fog[22].dispatcher remoteJobs_class_1 6016580
scalar FogSequentialForward.fog[22].dispatcher localJobs_class_1 14789
scalar FogSequentialForward.fog[22].dispatcher droppedJobsSLA_class_1 1455
scalar FogSequentialForward.fog[22].server[0] rho 0.99999386072159
scalar FogSequentialForward.fog[22].server[0] congestionRatio 0
scalar FogSequentialForward.fog[22].server[0] totalJobs 14789
scalar FogSequentialForward.fog[22].server[0] droppedJobsQueue 776
scalar FogSequentialForward.fog[22].server[0] droppedJobsTimout 0
scalar FogSequentialForward.fog[22].server[0] droppedJobsSLA 9137
scalar FogSequentialForward.fog[22].server[0] droppedJobsTotal 9913
scalar FogSequentialForward.fog[23].dispatcher localJobs 14846
scalar FogSequentialForward.fog[23].dispatcher internalJobs 16386
scalar FogSequentialForward.fog[23].dispatcher externalJobs 6019912
scalar FogSequentialForward.fog[23].dispatcher remoteJobs 6020092
scalar FogSequentialForward.fog[23].dispatcher probeQueries 0
scalar FogSequentialForward.fog[23].dispatcher probeAnswers 0
scalar FogSequentialForward.fog[23].dispatcher droppedJobsSLA 1360
scalar FogSequentialForward.fog[23].dispatcher jobs_class_1 6036298
scalar FogSequentialForward.fog[23].dispatcher remoteJobs_class_1 6020092
scalar FogSequentialForward.fog[23].dispatcher localJobs_class_1 14846
scalar FogSequentialForward.fog[23].dispatcher droppedJobsSLA_class_1 1360
scalar FogSequentialForward.fog[23].server[0] rho 0.99999612569809
scalar FogSequentialForward.fog[23].server[0] congestionRatio 0
scalar FogSequentialForward.fog[23].server[0] totalJobs 14846
scalar FogSequentialForward.fog[23].server[0] droppedJobsQueue 778
scalar FogSequentialForward.fog[23].server[0] droppedJobsTimout 0
scalar FogSequentialForward.fog[23].server[0] droppedJobsSLA 9143
scalar FogSequentialForward.fog[23].server[0] droppedJobsTotal 9921
scalar FogSequentialForward.fog[24].dispatcher localJobs 14807
scalar FogSequentialForward.fog[24].dispatcher internalJobs 16172
scalar FogSequentialForward.fog[24].dispatcher externalJobs 6023676
scalar FogSequentialForward.fog[24].dispatcher remoteJobs 6023609
scalar FogSequentialForward.fog[24].dispatcher probeQueries 0
scalar FogSequentialForward.fog[24].dispatcher probeAnswers 0
scalar FogSequentialForward.fog[24].dispatcher droppedJobsSLA 1432
scalar FogSequentialForward.fog[24].dispatcher jobs_class_1 6039848
scalar FogSequentialForward.fog[24].dispatcher remoteJobs_class_1 6023609
scalar FogSequentialForward.fog[24].dispatcher localJobs_class_1 14807
scalar FogSequentialForward.fog[24].dispatcher droppedJobsSLA_class_1 1432
scalar FogSequentialForward.fog[24].server[0] rho 0.9999960064888
scalar FogSequentialForward.fog[24].server[0] congestionRatio 0
scalar FogSequentialForward.fog[24].server[0] totalJobs 14807
scalar FogSequentialForward.fog[24].server[0] droppedJobsQueue 778
scalar FogSequentialForward.fog[24].server[0] droppedJobsTimout 0
scalar FogSequentialForward.fog[24].server[0] droppedJobsSLA 9148
scalar FogSequentialForward.fog[24].server[0] droppedJobsTotal 9926
scalar FogSequentialForward.fog[25].dispatcher localJobs 14813
scalar FogSequentialForward.fog[25].dispatcher internalJobs 16354
scalar FogSequentialForward.fog[25].dispatcher externalJobs 6021903
scalar FogSequentialForward.fog[25].dispatcher remoteJobs 6022079
scalar FogSequentialForward.fog[25].dispatcher probeQueries 0
scalar FogSequentialForward.fog[25].dispatcher probeAnswers 0
scalar FogSequentialForward.fog[25].dispatcher droppedJobsSLA 1365
scalar FogSequentialForward.fog[25].dispatcher jobs_class_1 6038257
scalar FogSequentialForward.fog[25].dispatcher remoteJobs_class_1 6022079
scalar FogSequentialForward.fog[25].dispatcher localJobs_class_1 14813
scalar FogSequentialForward.fog[25].dispatcher droppedJobsSLA_class_1 1365
scalar FogSequentialForward.fog[25].server[0] rho 0.99999767541885
scalar FogSequentialForward.fog[25].server[0] congestionRatio 0
scalar FogSequentialForward.fog[25].server[0] totalJobs 14813
scalar FogSequentialForward.fog[25].server[0] droppedJobsQueue 777
scalar FogSequentialForward.fog[25].server[0] droppedJobsTimout 0
scalar FogSequentialForward.fog[25].server[0] droppedJobsSLA 9105
scalar FogSequentialForward.fog[25].server[0] droppedJobsTotal 9882
scalar FogSequentialForward.fog[26].dispatcher localJobs 14859
scalar FogSequentialForward.fog[26].dispatcher internalJobs 16206
scalar FogSequentialForward.fog[26].dispatcher externalJobs 6024691
scalar FogSequentialForward.fog[26].dispatcher remoteJobs 6024641
scalar FogSequentialForward.fog[26].dispatcher probeQueries 0
scalar FogSequentialForward.fog[26].dispatcher probeAnswers 0
scalar FogSequentialForward.fog[26].dispatcher droppedJobsSLA 1397
scalar FogSequentialForward.fog[26].dispatcher jobs_class_1 6040897
scalar FogSequentialForward.fog[26].dispatcher remoteJobs_class_1 6024641
scalar FogSequentialForward.fog[26].dispatcher localJobs_class_1 14859
scalar FogSequentialForward.fog[26].dispatcher droppedJobsSLA_class_1 1397
scalar FogSequentialForward.fog[26].server[0] rho 0.99986833333969
scalar FogSequentialForward.fog[26].server[0] congestionRatio 0
scalar FogSequentialForward.fog[26].server[0] totalJobs 14859
scalar FogSequentialForward.fog[26].server[0] droppedJobsQueue 778
scalar FogSequentialForward.fog[26].server[0] droppedJobsTimout 0
scalar FogSequentialForward.fog[26].server[0] droppedJobsSLA 9173
scalar FogSequentialForward.fog[26].server[0] droppedJobsTotal 9951
scalar FogSequentialForward.fog[27].dispatcher localJobs 14836
scalar FogSequentialForward.fog[27].dispatcher internalJobs 16078
scalar FogSequentialForward.fog[27].dispatcher externalJobs 6025415
scalar FogSequentialForward.fog[27].dispatcher remoteJobs 6025255
scalar FogSequentialForward.fog[27].dispatcher probeQueries 0
scalar FogSequentialForward.fog[27].dispatcher probeAnswers 0
scalar FogSequentialForward.fog[27].dispatcher droppedJobsSLA 1402
scalar FogSequentialForward.fog[27].dispatcher jobs_class_1 6041493
scalar FogSequentialForward.fog[27].dispatcher remoteJobs_class_1 6025255
scalar FogSequentialForward.fog[27].dispatcher localJobs_class_1 14836
scalar FogSequentialForward.fog[27].dispatcher droppedJobsSLA_class_1 1402
scalar FogSequentialForward.fog[27].server[0] rho 0.99999737739563
scalar FogSequentialForward.fog[27].server[0] congestionRatio 0
scalar FogSequentialForward.fog[27].server[0] totalJobs 14836
scalar FogSequentialForward.fog[27].server[0] droppedJobsQueue 780
scalar FogSequentialForward.fog[27].server[0] droppedJobsTimout 0
scalar FogSequentialForward.fog[27].server[0] droppedJobsSLA 9176
scalar FogSequentialForward.fog[27].server[0] droppedJobsTotal 9956
scalar FogSequentialForward.fog[28].dispatcher localJobs 14840
scalar FogSequentialForward.fog[28].dispatcher internalJobs 16277
scalar FogSequentialForward.fog[28].dispatcher externalJobs 6024400
scalar FogSequentialForward.fog[28].dispatcher remoteJobs 6024384
scalar FogSequentialForward.fog[28].dispatcher probeQueries 0
scalar FogSequentialForward.fog[28].dispatcher probeAnswers 0
scalar FogSequentialForward.fog[28].dispatcher droppedJobsSLA 1453
scalar FogSequentialForward.fog[28].dispatcher jobs_class_1 6040677
scalar FogSequentialForward.fog[28].dispatcher remoteJobs_class_1 6024384
scalar FogSequentialForward.fog[28].dispatcher localJobs_class_1 14840
scalar FogSequentialForward.fog[28].dispatcher droppedJobsSLA_class_1 1453
scalar FogSequentialForward.fog[28].server[0] rho 0.99999523162842
scalar FogSequentialForward.fog[28].server[0] congestionRatio 0
scalar FogSequentialForward.fog[28].server[0] totalJobs 14840
scalar FogSequentialForward.fog[28].server[0] droppedJobsQueue 778
scalar FogSequentialForward.fog[28].server[0] droppedJobsTimout 0
scalar FogSequentialForward.fog[28].server[0] droppedJobsSLA 9108
scalar FogSequentialForward.fog[28].server[0] droppedJobsTotal 9886
scalar FogSequentialForward.fog[29].dispatcher localJobs 14792
scalar FogSequentialForward.fog[29].dispatcher internalJobs 16123
scalar FogSequentialForward.fog[29].dispatcher externalJobs 6022671
scalar FogSequentialForward.fog[29].dispatcher remoteJobs 6022726
scalar FogSequentialForward.fog[29].dispatcher probeQueries 0
scalar FogSequentialForward.fog[29].dispatcher probeAnswers 0
scalar FogSequentialForward.fog[29].dispatcher droppedJobsSLA 1276
scalar FogSequentialForward.fog[29].dispatcher jobs_class_1 6038794
scalar FogSequentialForward.fog[29].dispatcher remoteJobs_class_1 6022726
scalar FogSequentialForward.fog[29].dispatcher localJobs_class_1 14792
scalar FogSequentialForward.fog[29].dispatcher droppedJobsSLA_class_1 1276
scalar FogSequentialForward.fog[29].server[0] rho 0.9999977350235
scalar FogSequentialForward.fog[29].server[0] congestionRatio 0
scalar FogSequentialForward.fog[29].server[0] totalJobs 14792
scalar FogSequentialForward.fog[29].server[0] droppedJobsQueue 777
scalar FogSequentialForward.fog[29].server[0] droppedJobsTimout 0
scalar FogSequentialForward.fog[29].server[0] droppedJobsSLA 9140
scalar FogSequentialForward.fog[29].server[0] droppedJobsTotal 9917
scalar FogSequentialForward.fog[30].dispatcher localJobs 14863
scalar FogSequentialForward.fog[30].dispatcher internalJobs 16117
scalar FogSequentialForward.fog[30].dispatcher externalJobs 6025051
scalar FogSequentialForward.fog[30].dispatcher remoteJobs 6024918
scalar FogSequentialForward.fog[30].dispatcher probeQueries 0
scalar FogSequentialForward.fog[30].dispatcher probeAnswers 0
scalar FogSequentialForward.fog[30].dispatcher droppedJobsSLA 1387
scalar FogSequentialForward.fog[30].dispatcher jobs_class_1 6041168
scalar FogSequentialForward.fog[30].dispatcher remoteJobs_class_1 6024918
scalar FogSequentialForward.fog[30].dispatcher localJobs_class_1 14863
scalar FogSequentialForward.fog[30].dispatcher droppedJobsSLA_class_1 1387
scalar FogSequentialForward.fog[30].server[0] rho 0.99999564886093
scalar FogSequentialForward.fog[30].server[0] congestionRatio 0
scalar FogSequentialForward.fog[30].server[0] totalJobs 14863
scalar FogSequentialForward.fog[30].server[0] droppedJobsQueue 780
scalar FogSequentialForward.fog[30].server[0] droppedJobsTimout 0
scalar FogSequentialForward.fog[30].server[0] droppedJobsSLA 9160
scalar FogSequentialForward.fog[30].server[0] droppedJobsTotal 9940
scalar FogSequentialForward.fog[31].dispatcher localJobs 14884
scalar FogSequentialForward.fog[31].dispatcher internalJobs 16023
scalar FogSequentialForward.fog[31].dispatcher externalJobs 6025572
scalar FogSequentialForward.fog[31].dispatcher remoteJobs 6025273
scalar FogSequentialForward.fog[31].dispatcher probeQueries 0
scalar FogSequentialForward.fog[31].dispatcher probeAnswers 0
scalar FogSequentialForward.fog[31].dispatcher droppedJobsSLA 1438
scalar FogSequentialForward.fog[31].dispatcher jobs_class_1 6041595
scalar FogSequentialForward.fog[31].dispatcher remoteJobs_class_1 6025273
scalar FogSequentialForward.fog[31].dispatcher localJobs_class_1 14884
scalar FogSequentialForward.fog[31].dispatcher droppedJobsSLA_class_1 1438
scalar FogSequentialForward.fog[31].server[0] rho 0.99999630451202
scalar FogSequentialForward.fog[31].server[0] congestionRatio 0
scalar FogSequentialForward.fog[31].server[0] totalJobs 14884
scalar FogSequentialForward.fog[31].server[0] droppedJobsQueue 782
scalar FogSequentialForward.fog[31].server[0] droppedJobsTimout 0
scalar FogSequentialForward.fog[31].server[0] droppedJobsSLA 9206
scalar FogSequentialForward.fog[31].server[0] droppedJobsTotal 9988
scalar FogSequentialForward.fog[32].dispatcher localJobs 14768
scalar FogSequentialForward.fog[32].dispatcher internalJobs 16039
scalar FogSequentialForward.fog[32].dispatcher externalJobs 6020814
scalar FogSequentialForward.fog[32].dispatcher remoteJobs 6020709
scalar FogSequentialForward.fog[32].dispatcher probeQueries 0
scalar FogSequentialForward.fog[32].dispatcher probeAnswers 0
scalar FogSequentialForward.fog[32].dispatcher droppedJobsSLA 1376
scalar FogSequentialForward.fog[32].dispatcher jobs_class_1 6036853
scalar FogSequentialForward.fog[32].dispatcher remoteJobs_class_1 6020709
scalar FogSequentialForward.fog[32].dispatcher localJobs_class_1 14768
scalar FogSequentialForward.fog[32].dispatcher droppedJobsSLA_class_1 1376
scalar FogSequentialForward.fog[32].server[0] rho 0.99999666213989
scalar FogSequentialForward.fog[32].server[0] congestionRatio 0
scalar FogSequentialForward.fog[32].server[0] totalJobs 14768
scalar FogSequentialForward.fog[32].server[0] droppedJobsQueue 775
scalar FogSequentialForward.fog[32].server[0] droppedJobsTimout 0
scalar FogSequentialForward.fog[32].server[0] droppedJobsSLA 9095
scalar FogSequentialForward.fog[32].server[0] droppedJobsTotal 9870
scalar FogSequentialForward.fog[33].dispatcher localJobs 14842
scalar FogSequentialForward.fog[33].dispatcher internalJobs 16393
scalar FogSequentialForward.fog[33].dispatcher externalJobs 6023037
scalar FogSequentialForward.fog[33].dispatcher remoteJobs 6023200
scalar FogSequentialForward.fog[33].dispatcher probeQueries 0
scalar FogSequentialForward.fog[33].dispatcher probeAnswers 0
scalar FogSequentialForward.fog[33].dispatcher droppedJobsSLA 1388
scalar FogSequentialForward.fog[33].dispatcher jobs_class_1 6039430
scalar FogSequentialForward.fog[33].dispatcher remoteJobs_class_1 6023200
scalar FogSequentialForward.fog[33].dispatcher localJobs_class_1 14842
scalar FogSequentialForward.fog[33].dispatcher droppedJobsSLA_class_1 1388
scalar FogSequentialForward.fog[33].server[0] rho 0.99999606609344
scalar FogSequentialForward.fog[33].server[0] congestionRatio 0
scalar FogSequentialForward.fog[33].server[0] totalJobs 14842
scalar FogSequentialForward.fog[33].server[0] droppedJobsQueue 778
scalar FogSequentialForward.fog[33].server[0] droppedJobsTimout 0
scalar FogSequentialForward.fog[33].server[0] droppedJobsSLA 9131
scalar FogSequentialForward.fog[33].server[0] droppedJobsTotal 9909
scalar FogSequentialForward.fog[34].dispatcher localJobs 14852
scalar FogSequentialForward.fog[34].dispatcher internalJobs 16153
scalar FogSequentialForward.fog[34].dispatcher externalJobs 6022247
scalar FogSequentialForward.fog[34].dispatcher remoteJobs 6022146
scalar FogSequentialForward.fog[34].dispatcher probeQueries 0
scalar FogSequentialForward.fog[34].dispatcher probeAnswers 0
scalar FogSequentialForward.fog[34].dispatcher droppedJobsSLA 1402
scalar FogSequentialForward.fog[34].dispatcher jobs_class_1 6038400
scalar FogSequentialForward.fog[34].dispatcher remoteJobs_class_1 6022146
scalar FogSequentialForward.fog[34].dispatcher localJobs_class_1 14852
scalar FogSequentialForward.fog[34].dispatcher droppedJobsSLA_class_1 1402
scalar FogSequentialForward.fog[34].server[0] rho 0.99999713897705
scalar FogSequentialForward.fog[34].server[0] congestionRatio 0
scalar FogSequentialForward.fog[34].server[0] totalJobs 14852
scalar FogSequentialForward.fog[34].server[0] droppedJobsQueue 783
scalar FogSequentialForward.fog[34].server[0] droppedJobsTimout 0
scalar FogSequentialForward.fog[34].server[0] droppedJobsSLA 9192
scalar FogSequentialForward.fog[34].server[0] droppedJobsTotal 9975
scalar FogSequentialForward.fog[35].dispatcher localJobs 14861
scalar FogSequentialForward.fog[35].dispatcher internalJobs 16364
scalar FogSequentialForward.fog[35].dispatcher externalJobs 6020201
scalar FogSequentialForward.fog[35].dispatcher remoteJobs 6020384
scalar FogSequentialForward.fog[35].dispatcher probeQueries 0
scalar FogSequentialForward.fog[35].dispatcher probeAnswers 0
scalar FogSequentialForward.fog[35].dispatcher droppedJobsSLA 1320
scalar FogSequentialForward.fog[35].dispatcher jobs_class_1 6036565
scalar FogSequentialForward.fog[35].dispatcher remoteJobs_class_1 6020384
scalar FogSequentialForward.fog[35].dispatcher localJobs_class_1 14861
scalar FogSequentialForward.fog[35].dispatcher droppedJobsSLA_class_1 1320
scalar FogSequentialForward.fog[35].server[0] rho 0.99999499320984
scalar FogSequentialForward.fog[35].server[0] congestionRatio 0
scalar FogSequentialForward.fog[35].server[0] totalJobs 14861
scalar FogSequentialForward.fog[35].server[0] droppedJobsQueue 779
scalar FogSequentialForward.fog[35].server[0] droppedJobsTimout 0
scalar FogSequentialForward.fog[35].server[0] droppedJobsSLA 9177
scalar FogSequentialForward.fog[35].server[0] droppedJobsTotal 9956
scalar FogSequentialForward.fog[36].dispatcher localJobs 14844
scalar FogSequentialForward.fog[36].dispatcher internalJobs 16301
scalar FogSequentialForward.fog[36].dispatcher externalJobs 6023719
scalar FogSequentialForward.fog[36].dispatcher remoteJobs 6023806
scalar FogSequentialForward.fog[36].dispatcher probeQueries 0
scalar FogSequentialForward.fog[36].dispatcher probeAnswers 0
scalar FogSequentialForward.fog[36].dispatcher droppedJobsSLA 1370
scalar FogSequentialForward.fog[36].dispatcher jobs_class_1 6040020
scalar FogSequentialForward.fog[36].dispatcher remoteJobs_class_1 6023806
scalar FogSequentialForward.fog[36].dispatcher localJobs_class_1 14844
scalar FogSequentialForward.fog[36].dispatcher droppedJobsSLA_class_1 1370
scalar FogSequentialForward.fog[36].server[0] rho 0.99999803304672
scalar FogSequentialForward.fog[36].server[0] congestionRatio 0
scalar FogSequentialForward.fog[36].server[0] totalJobs 14844
scalar FogSequentialForward.fog[36].server[0] droppedJobsQueue 782
scalar FogSequentialForward.fog[36].server[0] droppedJobsTimout 0
scalar FogSequentialForward.fog[36].server[0] droppedJobsSLA 9190
scalar FogSequentialForward.fog[36].server[0] droppedJobsTotal 9972
scalar FogSequentialForward.fog[37].dispatcher localJobs 14896
scalar FogSequentialForward.fog[37].dispatcher internalJobs 16140
scalar FogSequentialForward.fog[37].dispatcher externalJobs 6025178
scalar FogSequentialForward.fog[37].dispatcher remoteJobs 6025057
scalar FogSequentialForward.fog[37].dispatcher probeQueries 0
scalar FogSequentialForward.fog[37].dispatcher probeAnswers 0
scalar FogSequentialForward.fog[37].dispatcher droppedJobsSLA 1365
scalar FogSequentialForward.fog[37].dispatcher jobs_class_1 6041318
scalar FogSequentialForward.fog[37].dispatcher remoteJobs_class_1 6025057
scalar FogSequentialForward.fog[37].dispatcher localJobs_class_1 14896
scalar FogSequentialForward.fog[37].dispatcher droppedJobsSLA_class_1 1365
scalar FogSequentialForward.fog[37].server[0] rho 0.99999403953552
scalar FogSequentialForward.fog[37].server[0] congestionRatio 0
scalar FogSequentialForward.fog[37].server[0] totalJobs 14896
scalar FogSequentialForward.fog[37].server[0] droppedJobsQueue 781
scalar FogSequentialForward.fog[37].server[0] droppedJobsTimout 0
scalar FogSequentialForward.fog[37].server[0] droppedJobsSLA 9190
scalar FogSequentialForward.fog[37].server[0] droppedJobsTotal 9971
scalar FogSequentialForward.fog[38].dispatcher localJobs 14887
scalar FogSequentialForward.fog[38].dispatcher internalJobs 16358
scalar FogSequentialForward.fog[38].dispatcher externalJobs 6028924
scalar FogSequentialForward.fog[38].dispatcher remoteJobs 6028993
scalar FogSequentialForward.fog[38].dispatcher probeQueries 0
scalar FogSequentialForward.fog[38].dispatcher probeAnswers 0
scalar FogSequentialForward.fog[38].dispatcher droppedJobsSLA 1402
scalar FogSequentialForward.fog[38].dispatcher jobs_class_1 6045282
scalar FogSequentialForward.fog[38].dispatcher remoteJobs_class_1 6028993
scalar FogSequentialForward.fog[38].dispatcher localJobs_class_1 14887
scalar FogSequentialForward.fog[38].dispatcher droppedJobsSLA_class_1 1402
scalar FogSequentialForward.fog[38].server[0] rho 0.99999463558197
scalar FogSequentialForward.fog[38].server[0] congestionRatio 0
scalar FogSequentialForward.fog[38].server[0] totalJobs 14887
scalar FogSequentialForward.fog[38].server[0] droppedJobsQueue 781
scalar FogSequentialForward.fog[38].server[0] droppedJobsTimout 0
scalar FogSequentialForward.fog[38].server[0] droppedJobsSLA 9167
scalar FogSequentialForward.fog[38].server[0] droppedJobsTotal 9948
scalar FogSequentialForward.fog[39].dispatcher localJobs 14785
scalar FogSequentialForward.fog[39].dispatcher internalJobs 16324
scalar FogSequentialForward.fog[39].dispatcher externalJobs 6025031
scalar FogSequentialForward.fog[39].dispatcher remoteJobs 6025255
scalar FogSequentialForward.fog[39].dispatcher probeQueries 0
scalar FogSequentialForward.fog[39].dispatcher probeAnswers 0
scalar FogSequentialForward.fog[39].dispatcher droppedJobsSLA 1315
scalar FogSequentialForward.fog[39].dispatcher jobs_class_1 6041355
scalar FogSequentialForward.fog[39].dispatcher remoteJobs_class_1 6025255
scalar FogSequentialForward.fog[39].dispatcher localJobs_class_1 14785
scalar FogSequentialForward.fog[39].dispatcher droppedJobsSLA_class_1 1315
scalar FogSequentialForward.fog[39].server[0] rho 0.99999707937241
scalar FogSequentialForward.fog[39].server[0] congestionRatio 0
scalar FogSequentialForward.fog[39].server[0] totalJobs 14785
scalar FogSequentialForward.fog[39].server[0] droppedJobsQueue 778
scalar FogSequentialForward.fog[39].server[0] droppedJobsTimout 0
scalar FogSequentialForward.fog[39].server[0] droppedJobsSLA 9107
scalar FogSequentialForward.fog[39].server[0] droppedJobsTotal 9885
scalar FogSequentialForward.fog[40].dispatcher localJobs 14877
scalar FogSequentialForward.fog[40].dispatcher internalJobs 16425
scalar FogSequentialForward.fog[40].dispatcher externalJobs 6023897
scalar FogSequentialForward.fog[40].dispatcher remoteJobs 6024078
scalar FogSequentialForward.fog[40].dispatcher probeQueries 0
scalar FogSequentialForward.fog[40].dispatcher probeAnswers 0
scalar FogSequentialForward.fog[40].dispatcher droppedJobsSLA 1367
scalar FogSequentialForward.fog[40].dispatcher jobs_class_1 6040322
scalar FogSequentialForward.fog[40].dispatcher remoteJobs_class_1 6024078
scalar FogSequentialForward.fog[40].dispatcher localJobs_class_1 14877
scalar FogSequentialForward.fog[40].dispatcher droppedJobsSLA_class_1 1367
scalar FogSequentialForward.fog[40].server[0] rho 0.99999487400055
scalar FogSequentialForward.fog[40].server[0] congestionRatio 0
scalar FogSequentialForward.fog[40].server[0] totalJobs 14877
scalar FogSequentialForward.fog[40].server[0] droppedJobsQueue 781
scalar FogSequentialForward.fog[40].server[0] droppedJobsTimout 0
scalar FogSequentialForward.fog[40].server[0] droppedJobsSLA 9207
scalar FogSequentialForward.fog[40].server[0] droppedJobsTotal 9988
scalar FogSequentialForward.fog[41].dispatcher localJobs 14859
scalar FogSequentialForward.fog[41].dispatcher internalJobs 16244
scalar FogSequentialForward.fog[41].dispatcher externalJobs 6023805
scalar FogSequentialForward.fog[41].dispatcher remoteJobs 6023831
scalar FogSequentialForward.fog[41].dispatcher probeQueries 0
scalar FogSequentialForward.fog[41].dispatcher probeAnswers 0
scalar FogSequentialForward.fog[41].dispatcher droppedJobsSLA 1359
scalar FogSequentialForward.fog[41].dispatcher jobs_class_1 6040049
scalar FogSequentialForward.fog[41].dispatcher remoteJobs_class_1 6023831
scalar FogSequentialForward.fog[41].dispatcher localJobs_class_1 14859
scalar FogSequentialForward.fog[41].dispatcher droppedJobsSLA_class_1 1359
scalar FogSequentialForward.fog[41].server[0] rho 0.99999487400055
scalar FogSequentialForward.fog[41].server[0] congestionRatio 0
scalar FogSequentialForward.fog[41].server[0] totalJobs 14859
scalar FogSequentialForward.fog[41].server[0] droppedJobsQueue 777
scalar FogSequentialForward.fog[41].server[0] droppedJobsTimout 0
scalar FogSequentialForward.fog[41].server[0] droppedJobsSLA 9130
scalar FogSequentialForward.fog[41].server[0] droppedJobsTotal 9907
scalar FogSequentialForward.fog[42].dispatcher localJobs 14812
scalar FogSequentialForward.fog[42].dispatcher internalJobs 16054
scalar FogSequentialForward.fog[42].dispatcher externalJobs 6023967
scalar FogSequentialForward.fog[42].dispatcher remoteJobs 6023771
scalar FogSequentialForward.fog[42].dispatcher probeQueries 0
scalar FogSequentialForward.fog[42].dispatcher probeAnswers 0
scalar FogSequentialForward.fog[42].dispatcher droppedJobsSLA 1438
scalar FogSequentialForward.fog[42].dispatcher jobs_class_1 6040021
scalar FogSequentialForward.fog[42].dispatcher remoteJobs_class_1 6023771
scalar FogSequentialForward.fog[42].dispatcher localJobs_class_1 14812
scalar FogSequentialForward.fog[42].dispatcher droppedJobsSLA_class_1 1438
scalar FogSequentialForward.fog[42].server[0] rho 0.9999960064888
scalar FogSequentialForward.fog[42].server[0] congestionRatio 0
scalar FogSequentialForward.fog[42].server[0] totalJobs 14812
scalar FogSequentialForward.fog[42].server[0] droppedJobsQueue 775
scalar FogSequentialForward.fog[42].server[0] droppedJobsTimout 0
scalar FogSequentialForward.fog[42].server[0] droppedJobsSLA 9185
scalar FogSequentialForward.fog[42].server[0] droppedJobsTotal 9960
scalar FogSequentialForward.fog[43].dispatcher localJobs 14793
scalar FogSequentialForward.fog[43].dispatcher internalJobs 16229
scalar FogSequentialForward.fog[43].dispatcher externalJobs 6023724
scalar FogSequentialForward.fog[43].dispatcher remoteJobs 6023694
scalar FogSequentialForward.fog[43].dispatcher probeQueries 0
scalar FogSequentialForward.fog[43].dispatcher probeAnswers 0
scalar FogSequentialForward.fog[43].dispatcher droppedJobsSLA 1466
scalar FogSequentialForward.fog[43].dispatcher jobs_class_1 6039953
scalar FogSequentialForward.fog[43].dispatcher remoteJobs_class_1 6023694
scalar FogSequentialForward.fog[43].dispatcher localJobs_class_1 14793
scalar FogSequentialForward.fog[43].dispatcher droppedJobsSLA_class_1 1466
scalar FogSequentialForward.fog[43].server[0] rho 0.9999977350235
scalar FogSequentialForward.fog[43].server[0] congestionRatio 0
scalar FogSequentialForward.fog[43].server[0] totalJobs 14793
scalar FogSequentialForward.fog[43].server[0] droppedJobsQueue 776
scalar FogSequentialForward.fog[43].server[0] droppedJobsTimout 0
scalar FogSequentialForward.fog[43].server[0] droppedJobsSLA 9085
scalar FogSequentialForward.fog[43].server[0] droppedJobsTotal 9861
scalar FogSequentialForward.fog[44].dispatcher localJobs 14798
scalar FogSequentialForward.fog[44].dispatcher internalJobs 16212
scalar FogSequentialForward.fog[44].dispatcher externalJobs 6026872
scalar FogSequentialForward.fog[44].dispatcher remoteJobs 6026891
scalar FogSequentialForward.fog[44].dispatcher probeQueries 0
scalar FogSequentialForward.fog[44].dispatcher probeAnswers 0
scalar FogSequentialForward.fog[44].dispatcher droppedJobsSLA 1395
scalar FogSequentialForward.fog[44].dispatcher jobs_class_1 6043084
scalar FogSequentialForward.fog[44].dispatcher remoteJobs_class_1 6026891
scalar FogSequentialForward.fog[44].dispatcher localJobs_class_1 14798
scalar FogSequentialForward.fog[44].dispatcher droppedJobsSLA_class_1 1395
scalar FogSequentialForward.fog[44].server[0] rho 0.99999552965164
scalar FogSequentialForward.fog[44].server[0] congestionRatio 0
scalar FogSequentialForward.fog[44].server[0] totalJobs 14798
scalar FogSequentialForward.fog[44].server[0] droppedJobsQueue 778
scalar FogSequentialForward.fog[44].server[0] droppedJobsTimout 0
scalar FogSequentialForward.fog[44].server[0] droppedJobsSLA 9111
scalar FogSequentialForward.fog[44].server[0] droppedJobsTotal 9889
scalar FogSequentialForward.fog[45].dispatcher localJobs 14816
scalar FogSequentialForward.fog[45].dispatcher internalJobs 15920
scalar FogSequentialForward.fog[45].dispatcher externalJobs 6024569
scalar FogSequentialForward.fog[45].dispatcher remoteJobs 6024312
scalar FogSequentialForward.fog[45].dispatcher probeQueries 0
scalar FogSequentialForward.fog[45].dispatcher probeAnswers 0
scalar FogSequentialForward.fog[45].dispatcher droppedJobsSLA 1361
scalar FogSequentialForward.fog[45].dispatcher jobs_class_1 6040489
scalar FogSequentialForward.fog[45].dispatcher remoteJobs_class_1 6024312
scalar FogSequentialForward.fog[45].dispatcher localJobs_class_1 14816
scalar FogSequentialForward.fog[45].dispatcher droppedJobsSLA_class_1 1361
scalar FogSequentialForward.fog[45].server[0] rho 0.99999725818634
scalar FogSequentialForward.fog[45].server[0] congestionRatio 0
scalar FogSequentialForward.fog[45].server[0] totalJobs 14816
scalar FogSequentialForward.fog[45].server[0] droppedJobsQueue 775
scalar FogSequentialForward.fog[45].server[0] droppedJobsTimout 0
scalar FogSequentialForward.fog[45].server[0] droppedJobsSLA 9133
scalar FogSequentialForward.fog[45].server[0] droppedJobsTotal 9908
scalar FogSequentialForward.fog[46].dispatcher localJobs 14851
scalar FogSequentialForward.fog[46].dispatcher internalJobs 16130
scalar FogSequentialForward.fog[46].dispatcher externalJobs 6020757
scalar FogSequentialForward.fog[46].dispatcher remoteJobs 6020660
scalar FogSequentialForward.fog[46].dispatcher probeQueries 0
scalar FogSequentialForward.fog[46].dispatcher probeAnswers 0
scalar FogSequentialForward.fog[46].dispatcher droppedJobsSLA 1376
scalar FogSequentialForward.fog[46].dispatcher jobs_class_1 6036887
scalar FogSequentialForward.fog[46].dispatcher remoteJobs_class_1 6020660
scalar FogSequentialForward.fog[46].dispatcher localJobs_class_1 14851
scalar FogSequentialForward.fog[46].dispatcher droppedJobsSLA_class_1 1376
scalar FogSequentialForward.fog[46].server[0] rho 0.99999439716339
scalar FogSequentialForward.fog[46].server[0] congestionRatio 0
scalar FogSequentialForward.fog[46].server[0] totalJobs 14851
scalar FogSequentialForward.fog[46].server[0] droppedJobsQueue 780
scalar FogSequentialForward.fog[46].server[0] droppedJobsTimout 0
scalar FogSequentialForward.fog[46].server[0] droppedJobsSLA 9152
scalar FogSequentialForward.fog[46].server[0] droppedJobsTotal 9932
scalar FogSequentialForward.fog[47].dispatcher localJobs 14902
scalar FogSequentialForward.fog[47].dispatcher internalJobs 16048
scalar FogSequentialForward.fog[47].dispatcher externalJobs 6025074
scalar FogSequentialForward.fog[47].dispatcher remoteJobs 6024784
scalar FogSequentialForward.fog[47].dispatcher probeQueries 0
scalar FogSequentialForward.fog[47].dispatcher probeAnswers 0
scalar FogSequentialForward.fog[47].dispatcher droppedJobsSLA 1436
scalar FogSequentialForward.fog[47].dispatcher jobs_class_1 6041122
scalar FogSequentialForward.fog[47].dispatcher remoteJobs_class_1 6024784
scalar FogSequentialForward.fog[47].dispatcher localJobs_class_1 14902
scalar FogSequentialForward.fog[47].dispatcher droppedJobsSLA_class_1 1436
scalar FogSequentialForward.fog[47].server[0] rho 0.99999606609344
scalar FogSequentialForward.fog[47].server[0] congestionRatio 0
scalar FogSequentialForward.fog[47].server[0] totalJobs 14902
scalar FogSequentialForward.fog[47].server[0] droppedJobsQueue 783
scalar FogSequentialForward.fog[47].server[0] droppedJobsTimout 0
scalar FogSequentialForward.fog[47].server[0] droppedJobsSLA 9179
scalar FogSequentialForward.fog[47].server[0] droppedJobsTotal 9962
scalar FogSequentialForward.fog[48].dispatcher localJobs 14867
scalar FogSequentialForward.fog[48].dispatcher internalJobs 16137
scalar FogSequentialForward.fog[48].dispatcher externalJobs 6022745
scalar FogSequentialForward.fog[48].dispatcher remoteJobs 6022576
scalar FogSequentialForward.fog[48].dispatcher probeQueries 0
scalar FogSequentialForward.fog[48].dispatcher probeAnswers 0
scalar FogSequentialForward.fog[48].dispatcher droppedJobsSLA 1439
scalar FogSequentialForward.fog[48].dispatcher jobs_class_1 6038882
scalar FogSequentialForward.fog[48].dispatcher remoteJobs_class_1 6022576
scalar FogSequentialForward.fog[48].dispatcher localJobs_class_1 14867
scalar FogSequentialForward.fog[48].dispatcher droppedJobsSLA_class_1 1439
scalar FogSequentialForward.fog[48].server[0] rho 0.99999612569809
scalar FogSequentialForward.fog[48].server[0] congestionRatio 0
scalar FogSequentialForward.fog[48].server[0] totalJobs 14867
scalar FogSequentialForward.fog[48].server[0] droppedJobsQueue 777
scalar FogSequentialForward.fog[48].server[0] droppedJobsTimout 0
scalar FogSequentialForward.fog[48].server[0] droppedJobsSLA 9154
scalar FogSequentialForward.fog[48].server[0] droppedJobsTotal 9931
scalar FogSequentialForward.fog[49].dispatcher localJobs 14788
scalar FogSequentialForward.fog[49].dispatcher internalJobs 16162
scalar FogSequentialForward.fog[49].dispatcher externalJobs 6022510
scalar FogSequentialForward.fog[49].dispatcher remoteJobs 6022530
scalar FogSequentialForward.fog[49].dispatcher probeQueries 0
scalar FogSequentialForward.fog[49].dispatcher probeAnswers 0
scalar FogSequentialForward.fog[49].dispatcher droppedJobsSLA 1354
scalar FogSequentialForward.fog[49].dispatcher jobs_class_1 6038672
scalar FogSequentialForward.fog[49].dispatcher remoteJobs_class_1 6022530
scalar FogSequentialForward.fog[49].dispatcher localJobs_class_1 14788
scalar FogSequentialForward.fog[49].dispatcher droppedJobsSLA_class_1 1354
scalar FogSequentialForward.fog[49].server[0] rho 0.99999475479126
scalar FogSequentialForward.fog[49].server[0] congestionRatio 0
scalar FogSequentialForward.fog[49].server[0] totalJobs 14788
scalar FogSequentialForward.fog[49].server[0] droppedJobsQueue 775
scalar FogSequentialForward.fog[49].server[0] droppedJobsTimout 0
scalar FogSequentialForward.fog[49].server[0] droppedJobsSLA 9077
scalar FogSequentialForward.fog[49].server[0] droppedJobsTotal 9852
scalar FogSequentialForward.fog[50].dispatcher localJobs 14755
scalar FogSequentialForward.fog[50].dispatcher internalJobs 16235
scalar FogSequentialForward.fog[50].dispatcher externalJobs 6023347
scalar FogSequentialForward.fog[50].dispatcher remoteJobs 6023462
scalar FogSequentialForward.fog[50].dispatcher probeQueries 0
scalar FogSequentialForward.fog[50].dispatcher probeAnswers 0
scalar FogSequentialForward.fog[50].dispatcher droppedJobsSLA 1365
scalar FogSequentialForward.fog[50].dispatcher jobs_class_1 6039582
scalar FogSequentialForward.fog[50].dispatcher remoteJobs_class_1 6023462
scalar FogSequentialForward.fog[50].dispatcher localJobs_class_1 14755
scalar FogSequentialForward.fog[50].dispatcher droppedJobsSLA_class_1 1365
scalar FogSequentialForward.fog[50].server[0] rho 0.99998790025711
scalar FogSequentialForward.fog[50].server[0] congestionRatio 0
scalar FogSequentialForward.fog[50].server[0] totalJobs 14755
scalar FogSequentialForward.fog[50].server[0] droppedJobsQueue 776
scalar FogSequentialForward.fog[50].server[0] droppedJobsTimout 0
scalar FogSequentialForward.fog[50].server[0] droppedJobsSLA 9069
scalar FogSequentialForward.fog[50].server[0] droppedJobsTotal 9845
scalar FogSequentialForward.fog[51].dispatcher localJobs 14840
scalar FogSequentialForward.fog[51].dispatcher internalJobs 16074
scalar FogSequentialForward.fog[51].dispatcher externalJobs 6025711
scalar FogSequentialForward.fog[51].dispatcher remoteJobs 6025541
scalar FogSequentialForward.fog[51].dispatcher probeQueries 0
scalar FogSequentialForward.fog[51].dispatcher probeAnswers 0
scalar FogSequentialForward.fog[51].dispatcher droppedJobsSLA 1404
scalar FogSequentialForward.fog[51].dispatcher jobs_class_1 6041785
scalar FogSequentialForward.fog[51].dispatcher remoteJobs_class_1 6025541
scalar FogSequentialForward.fog[51].dispatcher localJobs_class_1 14840
scalar FogSequentialForward.fog[51].dispatcher droppedJobsSLA_class_1 1404
scalar FogSequentialForward.fog[51].server[0] rho 0.99999791383743
scalar FogSequentialForward.fog[51].server[0] congestionRatio 0
scalar FogSequentialForward.fog[51].server[0] totalJobs 14840
scalar FogSequentialForward.fog[51].server[0] droppedJobsQueue 779
scalar FogSequentialForward.fog[51].server[0] droppedJobsTimout 0
scalar FogSequentialForward.fog[51].server[0] droppedJobsSLA 9186
scalar FogSequentialForward.fog[51].server[0] droppedJobsTotal 9965
scalar FogSequentialForward.fog[52].dispatcher localJobs 14854
scalar FogSequentialForward.fog[52].dispatcher internalJobs 16143
scalar FogSequentialForward.fog[52].dispatcher externalJobs 6023516
scalar FogSequentialForward.fog[52].dispatcher remoteJobs 6023431
scalar FogSequentialForward.fog[52].dispatcher probeQueries 0
scalar FogSequentialForward.fog[52].dispatcher probeAnswers 0
scalar FogSequentialForward.fog[52].dispatcher droppedJobsSLA 1374
scalar FogSequentialForward.fog[52].dispatcher jobs_class_1 6039659
scalar FogSequentialForward.fog[52].dispatcher remoteJobs_class_1 6023431
scalar FogSequentialForward.fog[52].dispatcher localJobs_class_1 14854
scalar FogSequentialForward.fog[52].dispatcher droppedJobsSLA_class_1 1374
scalar FogSequentialForward.fog[52].server[0] rho 0.99999499320984
scalar FogSequentialForward.fog[52].server[0] congestionRatio 0
scalar FogSequentialForward.fog[52].server[0] totalJobs 14854
scalar FogSequentialForward.fog[52].server[0] droppedJobsQueue 778
scalar FogSequentialForward.fog[52].server[0] droppedJobsTimout 0
scalar FogSequentialForward.fog[52].server[0] droppedJobsSLA 9159
scalar FogSequentialForward.fog[52].server[0] droppedJobsTotal 9937
scalar FogSequentialForward.fog[53].dispatcher localJobs 14960
scalar FogSequentialForward.fog[53].dispatcher internalJobs 16422
scalar FogSequentialForward.fog[53].dispatcher externalJobs 6026954
scalar FogSequentialForward.fog[53].dispatcher remoteJobs 6026989
scalar FogSequentialForward.fog[53].dispatcher probeQueries 0
scalar FogSequentialForward.fog[53].dispatcher probeAnswers 0
scalar FogSequentialForward.fog[53].dispatcher droppedJobsSLA 1427
scalar FogSequentialForward.fog[53].dispatcher jobs_class_1 6043376
scalar FogSequentialForward.fog[53].dispatcher remoteJobs_class_1 6026989
scalar FogSequentialForward.fog[53].dispatcher localJobs_class_1 14960
scalar FogSequentialForward.fog[53].dispatcher droppedJobsSLA_class_1 1427
scalar FogSequentialForward.fog[53].server[0] rho 0.9999948143959
scalar FogSequentialForward.fog[53].server[0] congestionRatio 0
scalar FogSequentialForward.fog[53].server[0] totalJobs 14960
scalar FogSequentialForward.fog[53].server[0] droppedJobsQueue 785
scalar FogSequentialForward.fog[53].server[0] droppedJobsTimout 0
scalar FogSequentialForward.fog[53].server[0] droppedJobsSLA 9321
scalar FogSequentialForward.fog[53].server[0] droppedJobsTotal 10106
scalar FogSequentialForward.fog[54].dispatcher localJobs 14806
scalar FogSequentialForward.fog[54].dispatcher internalJobs 16265
scalar FogSequentialForward.fog[54].dispatcher externalJobs 6022051
scalar FogSequentialForward.fog[54].dispatcher remoteJobs 6022198
scalar FogSequentialForward.fog[54].dispatcher probeQueries 0
scalar FogSequentialForward.fog[54].dispatcher probeAnswers 0
scalar FogSequentialForward.fog[54].dispatcher droppedJobsSLA 1312
scalar FogSequentialForward.fog[54].dispatcher jobs_class_1 6038316
scalar FogSequentialForward.fog[54].dispatcher remoteJobs_class_1 6022198
scalar FogSequentialForward.fog[54].dispatcher localJobs_class_1 14806
scalar FogSequentialForward.fog[54].dispatcher droppedJobsSLA_class_1 1312
scalar FogSequentialForward.fog[54].server[0] rho 0.99999344348907
scalar FogSequentialForward.fog[54].server[0] congestionRatio 0
scalar FogSequentialForward.fog[54].server[0] totalJobs 14806
scalar FogSequentialForward.fog[54].server[0] droppedJobsQueue 776
scalar FogSequentialForward.fog[54].server[0] droppedJobsTimout 0
scalar FogSequentialForward.fog[54].server[0] droppedJobsSLA 9107
scalar FogSequentialForward.fog[54].server[0] droppedJobsTotal 9883
scalar FogSequentialForward.fog[55].dispatcher localJobs 14854
scalar FogSequentialForward.fog[55].dispatcher internalJobs 16399
scalar FogSequentialForward.fog[55].dispatcher externalJobs 6025238
scalar FogSequentialForward.fog[55].dispatcher remoteJobs 6025382
scalar FogSequentialForward.fog[55].dispatcher probeQueries 0
scalar FogSequentialForward.fog[55].dispatcher probeAnswers 0
scalar FogSequentialForward.fog[55].dispatcher droppedJobsSLA 1401
scalar FogSequentialForward.fog[55].dispatcher jobs_class_1 6041637
scalar FogSequentialForward.fog[55].dispatcher remoteJobs_class_1 6025382
scalar FogSequentialForward.fog[55].dispatcher localJobs_class_1 14854
scalar FogSequentialForward.fog[55].dispatcher droppedJobsSLA_class_1 1401
scalar FogSequentialForward.fog[55].server[0] rho 0.99998480081558
scalar FogSequentialForward.fog[55].server[0] congestionRatio 0
scalar FogSequentialForward.fog[55].server[0] totalJobs 14854
scalar FogSequentialForward.fog[55].server[0] droppedJobsQueue 778
scalar FogSequentialForward.fog[55].server[0] droppedJobsTimout 0
scalar FogSequentialForward.fog[55].server[0] droppedJobsSLA 9180
scalar FogSequentialForward.fog[55].server[0] droppedJobsTotal 9958
scalar FogSequentialForward.fog[56].dispatcher localJobs 14868
scalar FogSequentialForward.fog[56].dispatcher internalJobs 16060
scalar FogSequentialForward.fog[56].dispatcher externalJobs 6024893
scalar FogSequentialForward.fog[56].dispatcher remoteJobs 6024745
scalar FogSequentialForward.fog[56].dispatcher probeQueries 0
scalar FogSequentialForward.fog[56].dispatcher probeAnswers 0
scalar FogSequentialForward.fog[56].dispatcher droppedJobsSLA 1340
scalar FogSequentialForward.fog[56].dispatcher jobs_class_1 6040953
scalar FogSequentialForward.fog[56].dispatcher remoteJobs_class_1 6024745
scalar FogSequentialForward.fog[56].dispatcher localJobs_class_1 14868
scalar FogSequentialForward.fog[56].dispatcher droppedJobsSLA_class_1 1340
scalar FogSequentialForward.fog[56].server[0] rho 0.99999707937241
scalar FogSequentialForward.fog[56].server[0] congestionRatio 0
scalar FogSequentialForward.fog[56].server[0] totalJobs 14868
scalar FogSequentialForward.fog[56].server[0] droppedJobsQueue 779
scalar FogSequentialForward.fog[56].server[0] droppedJobsTimout 0
scalar FogSequentialForward.fog[56].server[0] droppedJobsSLA 9184
scalar FogSequentialForward.fog[56].server[0] droppedJobsTotal 9963
scalar FogSequentialForward.fog[57].dispatcher localJobs 14868
scalar FogSequentialForward.fog[57].dispatcher internalJobs 16101
scalar FogSequentialForward.fog[57].dispatcher externalJobs 6022578
scalar FogSequentialForward.fog[57].dispatcher remoteJobs 6022461
scalar FogSequentialForward.fog[57].dispatcher probeQueries 0
scalar FogSequentialForward.fog[57].dispatcher probeAnswers 0
scalar FogSequentialForward.fog[57].dispatcher droppedJobsSLA 1350
scalar FogSequentialForward.fog[57].dispatcher jobs_class_1 6038679
scalar FogSequentialForward.fog[57].dispatcher remoteJobs_class_1 6022461
scalar FogSequentialForward.fog[57].dispatcher localJobs_class_1 14868
scalar FogSequentialForward.fog[57].dispatcher droppedJobsSLA_class_1 1350
scalar FogSequentialForward.fog[57].server[0] rho 0.99999588727951
scalar FogSequentialForward.fog[57].server[0] congestionRatio 0
scalar FogSequentialForward.fog[57].server[0] totalJobs 14868
scalar FogSequentialForward.fog[57].server[0] droppedJobsQueue 780
scalar FogSequentialForward.fog[57].server[0] droppedJobsTimout 0
scalar FogSequentialForward.fog[57].server[0] droppedJobsSLA 9151
scalar FogSequentialForward.fog[57].server[0] droppedJobsTotal 9931
scalar FogSequentialForward.fog[58].dispatcher localJobs 14863
scalar FogSequentialForward.fog[58].dispatcher internalJobs 16114
scalar FogSequentialForward.fog[58].dispatcher externalJobs 6023994
scalar FogSequentialForward.fog[58].dispatcher remoteJobs 6023922
scalar FogSequentialForward.fog[58].dispatcher probeQueries 0
scalar FogSequentialForward.fog[58].dispatcher probeAnswers 0
scalar FogSequentialForward.fog[58].dispatcher droppedJobsSLA 1323
scalar FogSequentialForward.fog[58].dispatcher jobs_class_1 6040108
scalar FogSequentialForward.fog[58].dispatcher remoteJobs_class_1 6023922
scalar FogSequentialForward.fog[58].dispatcher localJobs_class_1 14863
scalar FogSequentialForward.fog[58].dispatcher droppedJobsSLA_class_1 1323
scalar FogSequentialForward.fog[58].server[0] rho 0.99999749660492
scalar FogSequentialForward.fog[58].server[0] congestionRatio 0
scalar FogSequentialForward.fog[58].server[0] totalJobs 14863
scalar FogSequentialForward.fog[58].server[0] droppedJobsQueue 783
scalar FogSequentialForward.fog[58].server[0] droppedJobsTimout 0
scalar FogSequentialForward.fog[58].server[0] droppedJobsSLA 9160
scalar FogSequentialForward.fog[58].server[0] droppedJobsTotal 9943
scalar FogSequentialForward.fog[59].dispatcher localJobs 14898
scalar FogSequentialForward.fog[59].dispatcher internalJobs 16231
scalar FogSequentialForward.fog[59].dispatcher externalJobs 6019894
scalar FogSequentialForward.fog[59].dispatcher remoteJobs 6019840
scalar FogSequentialForward.fog[59].dispatcher probeQueries 0
scalar FogSequentialForward.fog[59].dispatcher probeAnswers 0
scalar FogSequentialForward.fog[59].dispatcher droppedJobsSLA 1387
scalar FogSequentialForward.fog[59].dispatcher jobs_class_1 6036125
scalar FogSequentialForward.fog[59].dispatcher remoteJobs_class_1 6019840
scalar FogSequentialForward.fog[59].dispatcher localJobs_class_1 14898
scalar FogSequentialForward.fog[59].dispatcher droppedJobsSLA_class_1 1387
scalar FogSequentialForward.fog[59].server[0] rho 0.99999725818634
scalar FogSequentialForward.fog[59].server[0] congestionRatio 0
scalar FogSequentialForward.fog[59].server[0] totalJobs 14898
scalar FogSequentialForward.fog[59].server[0] droppedJobsQueue 782
scalar FogSequentialForward.fog[59].server[0] droppedJobsTimout 0
scalar FogSequentialForward.fog[59].server[0] droppedJobsSLA 9197
scalar FogSequentialForward.fog[59].server[0] droppedJobsTotal 9979
scalar FogSequentialForward.fog[60].dispatcher localJobs 14778
scalar FogSequentialForward.fog[60].dispatcher internalJobs 16163
scalar FogSequentialForward.fog[60].dispatcher externalJobs 6024923
scalar FogSequentialForward.fog[60].dispatcher remoteJobs 6024954
scalar FogSequentialForward.fog[60].dispatcher probeQueries 0
scalar FogSequentialForward.fog[60].dispatcher probeAnswers 0
scalar FogSequentialForward.fog[60].dispatcher droppedJobsSLA 1354
scalar FogSequentialForward.fog[60].dispatcher jobs_class_1 6041086
scalar FogSequentialForward.fog[60].dispatcher remoteJobs_class_1 6024954
scalar FogSequentialForward.fog[60].dispatcher localJobs_class_1 14778
scalar FogSequentialForward.fog[60].dispatcher droppedJobsSLA_class_1 1354
scalar FogSequentialForward.fog[60].server[0] rho 0.99996674060822
scalar FogSequentialForward.fog[60].server[0] congestionRatio 0
scalar FogSequentialForward.fog[60].server[0] totalJobs 14778
scalar FogSequentialForward.fog[60].server[0] droppedJobsQueue 774
scalar FogSequentialForward.fog[60].server[0] droppedJobsTimout 0
scalar FogSequentialForward.fog[60].server[0] droppedJobsSLA 9100
scalar FogSequentialForward.fog[60].server[0] droppedJobsTotal 9874
scalar FogSequentialForward.fog[61].dispatcher localJobs 14808
scalar FogSequentialForward.fog[61].dispatcher internalJobs 16272
scalar FogSequentialForward.fog[61].dispatcher externalJobs 6021625
scalar FogSequentialForward.fog[61].dispatcher remoteJobs 6021672
scalar FogSequentialForward.fog[61].dispatcher probeQueries 0
scalar FogSequentialForward.fog[61].dispatcher probeAnswers 0
scalar FogSequentialForward.fog[61].dispatcher droppedJobsSLA 1417
scalar FogSequentialForward.fog[61].dispatcher jobs_class_1 6037897
scalar FogSequentialForward.fog[61].dispatcher remoteJobs_class_1 6021672
scalar FogSequentialForward.fog[61].dispatcher localJobs_class_1 14808
scalar FogSequentialForward.fog[61].dispatcher droppedJobsSLA_class_1 1417
scalar FogSequentialForward.fog[61].server[0] rho 0.99999380111694
scalar FogSequentialForward.fog[61].server[0] congestionRatio 0
scalar FogSequentialForward.fog[61].server[0] totalJobs 14808
scalar FogSequentialForward.fog[61].server[0] droppedJobsQueue 773
scalar FogSequentialForward.fog[61].server[0] droppedJobsTimout 0
scalar FogSequentialForward.fog[61].server[0] droppedJobsSLA 9105
scalar FogSequentialForward.fog[61].server[0] droppedJobsTotal 9878
scalar FogSequentialForward.fog[62].dispatcher localJobs 14783
scalar FogSequentialForward.fog[62].dispatcher internalJobs 16367
scalar FogSequentialForward.fog[62].dispatcher externalJobs 6024911
scalar FogSequentialForward.fog[62].dispatcher remoteJobs 6025067
scalar FogSequentialForward.fog[62].dispatcher probeQueries 0
scalar FogSequentialForward.fog[62].dispatcher probeAnswers 0
scalar FogSequentialForward.fog[62].dispatcher droppedJobsSLA 1428
scalar FogSequentialForward.fog[62].dispatcher jobs_class_1 6041278
scalar FogSequentialForward.fog[62].dispatcher remoteJobs_class_1 6025067
scalar FogSequentialForward.fog[62].dispatcher localJobs_class_1 14783
scalar FogSequentialForward.fog[62].dispatcher droppedJobsSLA_class_1 1428
scalar FogSequentialForward.fog[62].server[0] rho 0.99999439716339
scalar FogSequentialForward.fog[62].server[0] congestionRatio 0
scalar FogSequentialForward.fog[62].server[0] totalJobs 14783
scalar FogSequentialForward.fog[62].server[0] droppedJobsQueue 775
scalar FogSequentialForward.fog[62].server[0] droppedJobsTimout 0
scalar FogSequentialForward.fog[62].server[0] droppedJobsSLA 9113
scalar FogSequentialForward.fog[62].server[0] droppedJobsTotal 9888
scalar FogSequentialForward.fog[63].dispatcher localJobs 14754
scalar FogSequentialForward.fog[63].dispatcher internalJobs 16426
scalar FogSequentialForward.fog[63].dispatcher externalJobs 6023614
scalar FogSequentialForward.fog[63].dispatcher remoteJobs 6023919
scalar FogSequentialForward.fog[63].dispatcher probeQueries 0
scalar FogSequentialForward.fog[63].dispatcher probeAnswers 0
scalar FogSequentialForward.fog[63].dispatcher droppedJobsSLA 1367
scalar FogSequentialForward.fog[63].dispatcher jobs_class_1 6040040
scalar FogSequentialForward.fog[63].dispatcher remoteJobs_class_1 6023919
scalar FogSequentialForward.fog[63].dispatcher localJobs_class_1 14754
scalar FogSequentialForward.fog[63].dispatcher droppedJobsSLA_class_1 1367
scalar FogSequentialForward.fog[63].server[0] rho 0.99999713897705
scalar FogSequentialForward.fog[63].server[0] congestionRatio 0
scalar FogSequentialForward.fog[63].server[0] totalJobs 14754
scalar FogSequentialForward.fog[63].server[0] droppedJobsQueue 775
scalar FogSequentialForward.fog[63].server[0] droppedJobsTimout 0
scalar FogSequentialForward.fog[63].server[0] droppedJobsSLA 9093
scalar FogSequentialForward.fog[63].server[0] droppedJobsTotal 9868
scalar FogSequentialForward.fog[64].dispatcher localJobs 14777
scalar FogSequentialForward.fog[64].dispatcher internalJobs 16236
scalar FogSequentialForward.fog[64].dispatcher externalJobs 6025240
scalar FogSequentialForward.fog[64].dispatcher remoteJobs 6025332
scalar FogSequentialForward.fog[64].dispatcher probeQueries 0
scalar FogSequentialForward.fog[64].dispatcher probeAnswers 0
scalar FogSequentialForward.fog[64].dispatcher droppedJobsSLA 1367
scalar FogSequentialForward.fog[64].dispatcher jobs_class_1 6041476
scalar FogSequentialForward.fog[64].dispatcher remoteJobs_class_1 6025332
scalar FogSequentialForward.fog[64].dispatcher localJobs_class_1 14777
scalar FogSequentialForward.fog[64].dispatcher droppedJobsSLA_class_1 1367
scalar FogSequentialForward.fog[64].server[0] rho 0.99999636411667
scalar FogSequentialForward.fog[64].server[0] congestionRatio 0
scalar FogSequentialForward.fog[64].server[0] totalJobs 14777
scalar FogSequentialForward.fog[64].server[0] droppedJobsQueue 779
scalar FogSequentialForward.fog[64].server[0] droppedJobsTimout 0
scalar FogSequentialForward.fog[64].server[0] droppedJobsSLA 9108
scalar FogSequentialForward.fog[64].server[0] droppedJobsTotal 9887
scalar FogSequentialForward.fog[65].dispatcher localJobs 14838
scalar FogSequentialForward.fog[65].dispatcher internalJobs 16227
scalar FogSequentialForward.fog[65].dispatcher externalJobs 6023764
scalar FogSequentialForward.fog[65].dispatcher remoteJobs 6023763
scalar FogSequentialForward.fog[65].dispatcher probeQueries 0
scalar FogSequentialForward.fog[65].dispatcher probeAnswers 0
scalar FogSequentialForward.fog[65].dispatcher droppedJobsSLA 1390
scalar FogSequentialForward.fog[65].dispatcher jobs_class_1 6039991
scalar FogSequentialForward.fog[65].dispatcher remoteJobs_class_1 6023763
scalar FogSequentialForward.fog[65].dispatcher localJobs_class_1 14838
scalar FogSequentialForward.fog[65].dispatcher droppedJobsSLA_class_1 1390
[...]
scalar FogSequentialForward.fog[84].dispatcher probeAnswers 0
scalar FogSequentialForward.fog[84].dispatcher droppedJobsSLA 1330
scalar FogSequentialForward.fog[84].dispatcher jobs_class_1 6035042
scalar FogSequentialForward.fog[84].dispatcher remoteJobs_class_1 6018866
scalar FogSequentialForward.fog[84].dispatcher localJobs_class_1 14846
scalar FogSequentialForward.fog[84].dispatcher droppedJobsSLA_class_1 1330
scalar FogSequentialForward.fog[84].server[0] rho 0.99999541044235
scalar FogSequentialForward.fog[84].server[0] congestionRatio 0
scalar FogSequentialForward.fog[84].server[0] totalJobs 14846
scalar FogSequentialForward.fog[84].server[0] droppedJobsQueue 781
scalar FogSequentialForward.fog[84].server[0] droppedJobsTimout 0
scalar FogSequentialForward.fog[84].server[0] droppedJobsSLA 9138
scalar FogSequentialForward.fog[84].server[0] droppedJobsTotal 9919
scalar FogSequentialForward.fog[85].dispatcher localJobs 14835
scalar FogSequentialForward.fog[85].dispatcher internalJobs 16451
scalar FogSequentialForward.fog[85].dispatcher externalJobs 6025713
scalar FogSequentialForward.fog[85].dispatcher remoteJobs 6025906
scalar FogSequentialForward.fog[85].dispatcher probeQueries 0
scalar FogSequentialForward.fog[85].dispatcher probeAnswers 0
scalar FogSequentialForward.fog[85].dispatcher droppedJobsSLA 1423
scalar FogSequentialForward.fog[85].dispatcher jobs_class_1 6042164
scalar FogSequentialForward.fog[85].dispatcher remoteJobs_class_1 6025906
scalar FogSequentialForward.fog[85].dispatcher localJobs_class_1 14835
scalar FogSequentialForward.fog[85].dispatcher droppedJobsSLA_class_1 1423
scalar FogSequentialForward.fog[85].server[0] rho 0.99999564886093
scalar FogSequentialForward.fog[85].server[0] congestionRatio 0
scalar FogSequentialForward.fog[85].server[0] totalJobs 14835
scalar FogSequentialForward.fog[85].server[0] droppedJobsQueue 776
scalar FogSequentialForward.fog[85].server[0] droppedJobsTimout 0
scalar FogSequentialForward.fog[85].server[0] droppedJobsSLA 9199
scalar FogSequentialForward.fog[85].server[0] droppedJobsTotal 9975
scalar FogSequentialForward.fog[86].dispatcher localJobs 14798
scalar FogSequentialForward.fog[86].dispatcher internalJobs 16145
scalar FogSequentialForward.fog[86].dispatcher externalJobs 6021647
scalar FogSequentialForward.fog[86].dispatcher remoteJobs 6021617
scalar FogSequentialForward.fog[86].dispatcher probeQueries 0
scalar FogSequentialForward.fog[86].dispatcher probeAnswers 0
scalar FogSequentialForward.fog[86].dispatcher droppedJobsSLA 1377
scalar FogSequentialForward.fog[86].dispatcher jobs_class_1 6037792
scalar FogSequentialForward.fog[86].dispatcher remoteJobs_class_1 6021617
scalar FogSequentialForward.fog[86].dispatcher localJobs_class_1 14798
scalar FogSequentialForward.fog[86].dispatcher droppedJobsSLA_class_1 1377
scalar FogSequentialForward.fog[86].server[0] rho 0.99999779462814
scalar FogSequentialForward.fog[86].server[0] congestionRatio 0
scalar FogSequentialForward.fog[86].server[0] totalJobs 14798
scalar FogSequentialForward.fog[86].server[0] droppedJobsQueue 781
scalar FogSequentialForward.fog[86].server[0] droppedJobsTimout 0
scalar FogSequentialForward.fog[86].server[0] droppedJobsSLA 9128
scalar FogSequentialForward.fog[86].server[0] droppedJobsTotal 9909
scalar FogSequentialForward.fog[87].dispatcher localJobs 14880
scalar FogSequentialForward.fog[87].dispatcher internalJobs 16098
scalar FogSequentialForward.fog[87].dispatcher externalJobs 6022817
scalar FogSequentialForward.fog[87].dispatcher remoteJobs 6022646
scalar FogSequentialForward.fog[87].dispatcher probeQueries 0
scalar FogSequentialForward.fog[87].dispatcher probeAnswers 0
scalar FogSequentialForward.fog[87].dispatcher droppedJobsSLA 1389
scalar FogSequentialForward.fog[87].dispatcher jobs_class_1 6038915
scalar FogSequentialForward.fog[87].dispatcher remoteJobs_class_1 6022646
scalar FogSequentialForward.fog[87].dispatcher localJobs_class_1 14880
scalar FogSequentialForward.fog[87].dispatcher droppedJobsSLA_class_1 1389
scalar FogSequentialForward.fog[87].server[0] rho 0.99999713897705
scalar FogSequentialForward.fog[87].server[0] congestionRatio 0
scalar FogSequentialForward.fog[87].server[0] totalJobs 14880
scalar FogSequentialForward.fog[87].server[0] droppedJobsQueue 779
scalar FogSequentialForward.fog[87].server[0] droppedJobsTimout 0
scalar FogSequentialForward.fog[87].server[0] droppedJobsSLA 9237
scalar FogSequentialForward.fog[87].server[0] droppedJobsTotal 10016
scalar FogSequentialForward.fog[88].dispatcher localJobs 14829
scalar FogSequentialForward.fog[88].dispatcher internalJobs 16334
scalar FogSequentialForward.fog[88].dispatcher externalJobs 6024266
scalar FogSequentialForward.fog[88].dispatcher remoteJobs 6024412
scalar FogSequentialForward.fog[88].dispatcher probeQueries 0
scalar FogSequentialForward.fog[88].dispatcher probeAnswers 0
scalar FogSequentialForward.fog[88].dispatcher droppedJobsSLA 1359
scalar FogSequentialForward.fog[88].dispatcher jobs_class_1 6040600
scalar FogSequentialForward.fog[88].dispatcher remoteJobs_class_1 6024412
scalar FogSequentialForward.fog[88].dispatcher localJobs_class_1 14829
scalar FogSequentialForward.fog[88].dispatcher droppedJobsSLA_class_1 1359
scalar FogSequentialForward.fog[88].server[0] rho 0.9999960064888
scalar FogSequentialForward.fog[88].server[0] congestionRatio 0
scalar FogSequentialForward.fog[88].server[0] totalJobs 14829
scalar FogSequentialForward.fog[88].server[0] droppedJobsQueue 782
scalar FogSequentialForward.fog[88].server[0] droppedJobsTimout 0
scalar FogSequentialForward.fog[88].server[0] droppedJobsSLA 9150
scalar FogSequentialForward.fog[88].server[0] droppedJobsTotal 9932
scalar FogSequentialForward.fog[89].dispatcher localJobs 14834
scalar FogSequentialForward.fog[89].dispatcher internalJobs 16169
scalar FogSequentialForward.fog[89].dispatcher externalJobs 6029827
scalar FogSequentialForward.fog[89].dispatcher remoteJobs 6029764
scalar FogSequentialForward.fog[89].dispatcher probeQueries 0
scalar FogSequentialForward.fog[89].dispatcher probeAnswers 0
scalar FogSequentialForward.fog[89].dispatcher droppedJobsSLA 1398
scalar FogSequentialForward.fog[89].dispatcher jobs_class_1 6045996
scalar FogSequentialForward.fog[89].dispatcher remoteJobs_class_1 6029764
scalar FogSequentialForward.fog[89].dispatcher localJobs_class_1 14834
scalar FogSequentialForward.fog[89].dispatcher droppedJobsSLA_class_1 1398
scalar FogSequentialForward.fog[89].server[0] rho 0.99999570846558
scalar FogSequentialForward.fog[89].server[0] congestionRatio 0
scalar FogSequentialForward.fog[89].server[0] totalJobs 14834
scalar FogSequentialForward.fog[89].server[0] droppedJobsQueue 778
scalar FogSequentialForward.fog[89].server[0] droppedJobsTimout 0
scalar FogSequentialForward.fog[89].server[0] droppedJobsSLA 9127
scalar FogSequentialForward.fog[89].server[0] droppedJobsTotal 9905
scalar FogSequentialForward.fog[90].dispatcher localJobs 14885
scalar FogSequentialForward.fog[90].dispatcher internalJobs 16177
scalar FogSequentialForward.fog[90].dispatcher externalJobs 6020378
scalar FogSequentialForward.fog[90].dispatcher remoteJobs 6020238
scalar FogSequentialForward.fog[90].dispatcher probeQueries 0
scalar FogSequentialForward.fog[90].dispatcher probeAnswers 0
scalar FogSequentialForward.fog[90].dispatcher droppedJobsSLA 1432
scalar FogSequentialForward.fog[90].dispatcher jobs_class_1 6036555
scalar FogSequentialForward.fog[90].dispatcher remoteJobs_class_1 6020238
scalar FogSequentialForward.fog[90].dispatcher localJobs_class_1 14885
scalar FogSequentialForward.fog[90].dispatcher droppedJobsSLA_class_1 1432
scalar FogSequentialForward.fog[90].server[0] rho 0.99999612569809
scalar FogSequentialForward.fog[90].server[0] congestionRatio 0
scalar FogSequentialForward.fog[90].server[0] totalJobs 14885
scalar FogSequentialForward.fog[90].server[0] droppedJobsQueue 779
scalar FogSequentialForward.fog[90].server[0] droppedJobsTimout 0
scalar FogSequentialForward.fog[90].server[0] droppedJobsSLA 9201
scalar FogSequentialForward.fog[90].server[0] droppedJobsTotal 9980
scalar FogSequentialForward.fog[91].dispatcher localJobs 14782
scalar FogSequentialForward.fog[91].dispatcher internalJobs 16108
scalar FogSequentialForward.fog[91].dispatcher externalJobs 6019560
scalar FogSequentialForward.fog[91].dispatcher remoteJobs 6019575
scalar FogSequentialForward.fog[91].dispatcher probeQueries 0
scalar FogSequentialForward.fog[91].dispatcher probeAnswers 0
scalar FogSequentialForward.fog[91].dispatcher droppedJobsSLA 1311
scalar FogSequentialForward.fog[91].dispatcher jobs_class_1 6035668
scalar FogSequentialForward.fog[91].dispatcher remoteJobs_class_1 6019575
scalar FogSequentialForward.fog[91].dispatcher localJobs_class_1 14782
scalar FogSequentialForward.fog[91].dispatcher droppedJobsSLA_class_1 1311
scalar FogSequentialForward.fog[91].server[0] rho 0.99999612569809
scalar FogSequentialForward.fog[91].server[0] congestionRatio 0
scalar FogSequentialForward.fog[91].server[0] totalJobs 14782
scalar FogSequentialForward.fog[91].server[0] droppedJobsQueue 776
scalar FogSequentialForward.fog[91].server[0] droppedJobsTimout 0
scalar FogSequentialForward.fog[91].server[0] droppedJobsSLA 9068
scalar FogSequentialForward.fog[91].server[0] droppedJobsTotal 9844
scalar FogSequentialForward.fog[92].dispatcher localJobs 14755
scalar FogSequentialForward.fog[92].dispatcher internalJobs 16121
scalar FogSequentialForward.fog[92].dispatcher externalJobs 6024391
scalar FogSequentialForward.fog[92].dispatcher remoteJobs 6024414
scalar FogSequentialForward.fog[92].dispatcher probeQueries 0
scalar FogSequentialForward.fog[92].dispatcher probeAnswers 0
scalar FogSequentialForward.fog[92].dispatcher droppedJobsSLA 1343
scalar FogSequentialForward.fog[92].dispatcher jobs_class_1 6040512
scalar FogSequentialForward.fog[92].dispatcher remoteJobs_class_1 6024414
scalar FogSequentialForward.fog[92].dispatcher localJobs_class_1 14755
scalar FogSequentialForward.fog[92].dispatcher droppedJobsSLA_class_1 1343
scalar FogSequentialForward.fog[92].server[0] rho 0.99999541044235
scalar FogSequentialForward.fog[92].server[0] congestionRatio 0
scalar FogSequentialForward.fog[92].server[0] totalJobs 14755
scalar FogSequentialForward.fog[92].server[0] droppedJobsQueue 777
scalar FogSequentialForward.fog[92].server[0] droppedJobsTimout 0
scalar FogSequentialForward.fog[92].server[0] droppedJobsSLA 9070
scalar FogSequentialForward.fog[92].server[0] droppedJobsTotal 9847
scalar FogSequentialForward.fog[93].dispatcher localJobs 14877
scalar FogSequentialForward.fog[93].dispatcher internalJobs 16192
scalar FogSequentialForward.fog[93].dispatcher externalJobs 6024120
scalar FogSequentialForward.fog[93].dispatcher remoteJobs 6024091
scalar FogSequentialForward.fog[93].dispatcher probeQueries 0
scalar FogSequentialForward.fog[93].dispatcher probeAnswers 0
scalar FogSequentialForward.fog[93].dispatcher droppedJobsSLA 1344
scalar FogSequentialForward.fog[93].dispatcher jobs_class_1 6040312
scalar FogSequentialForward.fog[93].dispatcher remoteJobs_class_1 6024091
scalar FogSequentialForward.fog[93].dispatcher localJobs_class_1 14877
scalar FogSequentialForward.fog[93].dispatcher droppedJobsSLA_class_1 1344
scalar FogSequentialForward.fog[93].server[0] rho 0.99999690055847
scalar FogSequentialForward.fog[93].server[0] congestionRatio 0
scalar FogSequentialForward.fog[93].server[0] totalJobs 14877
scalar FogSequentialForward.fog[93].server[0] droppedJobsQueue 781
scalar FogSequentialForward.fog[93].server[0] droppedJobsTimout 0
scalar FogSequentialForward.fog[93].server[0] droppedJobsSLA 9183
scalar FogSequentialForward.fog[93].server[0] droppedJobsTotal 9964
scalar FogSequentialForward.fog[94].dispatcher localJobs 14845
scalar FogSequentialForward.fog[94].dispatcher internalJobs 16440
scalar FogSequentialForward.fog[94].dispatcher externalJobs 6024133
scalar FogSequentialForward.fog[94].dispatcher remoteJobs 6024319
scalar FogSequentialForward.fog[94].dispatcher probeQueries 0
scalar FogSequentialForward.fog[94].dispatcher probeAnswers 0
scalar FogSequentialForward.fog[94].dispatcher droppedJobsSLA 1409
scalar FogSequentialForward.fog[94].dispatcher jobs_class_1 6040573
scalar FogSequentialForward.fog[94].dispatcher remoteJobs_class_1 6024319
scalar FogSequentialForward.fog[94].dispatcher localJobs_class_1 14845
scalar FogSequentialForward.fog[94].dispatcher droppedJobsSLA_class_1 1409
scalar FogSequentialForward.fog[94].server[0] rho 0.99999606609344
scalar FogSequentialForward.fog[94].server[0] congestionRatio 0
scalar FogSequentialForward.fog[94].server[0] totalJobs 14845
scalar FogSequentialForward.fog[94].server[0] droppedJobsQueue 781
scalar FogSequentialForward.fog[94].server[0] droppedJobsTimout 0
scalar FogSequentialForward.fog[94].server[0] droppedJobsSLA 9165
scalar FogSequentialForward.fog[94].server[0] droppedJobsTotal 9946
scalar FogSequentialForward.fog[95].dispatcher localJobs 14847
scalar FogSequentialForward.fog[95].dispatcher internalJobs 16085
scalar FogSequentialForward.fog[95].dispatcher externalJobs 6024205
scalar FogSequentialForward.fog[95].dispatcher remoteJobs 6023989
scalar FogSequentialForward.fog[95].dispatcher probeQueries 0
scalar FogSequentialForward.fog[95].dispatcher probeAnswers 0
scalar FogSequentialForward.fog[95].dispatcher droppedJobsSLA 1454
scalar FogSequentialForward.fog[95].dispatcher jobs_class_1 6040290
scalar FogSequentialForward.fog[95].dispatcher remoteJobs_class_1 6023989
scalar FogSequentialForward.fog[95].dispatcher localJobs_class_1 14847
scalar FogSequentialForward.fog[95].dispatcher droppedJobsSLA_class_1 1454
scalar FogSequentialForward.fog[95].server[0] rho 0.99998217821121
scalar FogSequentialForward.fog[95].server[0] congestionRatio 0
scalar FogSequentialForward.fog[95].server[0] totalJobs 14847
scalar FogSequentialForward.fog[95].server[0] droppedJobsQueue 779
scalar FogSequentialForward.fog[95].server[0] droppedJobsTimout 0
scalar FogSequentialForward.fog[95].server[0] droppedJobsSLA 9170
scalar FogSequentialForward.fog[95].server[0] droppedJobsTotal 9949
scalar FogSequentialForward.fog[96].dispatcher localJobs 14954
scalar FogSequentialForward.fog[96].dispatcher internalJobs 16152
scalar FogSequentialForward.fog[96].dispatcher externalJobs 6021522
scalar FogSequentialForward.fog[96].dispatcher remoteJobs 6021316
scalar FogSequentialForward.fog[96].dispatcher probeQueries 0
scalar FogSequentialForward.fog[96].dispatcher probeAnswers 0
scalar FogSequentialForward.fog[96].dispatcher droppedJobsSLA 1404
scalar FogSequentialForward.fog[96].dispatcher jobs_class_1 6037674
scalar FogSequentialForward.fog[96].dispatcher remoteJobs_class_1 6021316
scalar FogSequentialForward.fog[96].dispatcher localJobs_class_1 14954
scalar FogSequentialForward.fog[96].dispatcher droppedJobsSLA_class_1 1404
scalar FogSequentialForward.fog[96].server[0] rho 0.99999469518661
scalar FogSequentialForward.fog[96].server[0] congestionRatio 0
scalar FogSequentialForward.fog[96].server[0] totalJobs 14954
scalar FogSequentialForward.fog[96].server[0] droppedJobsQueue 784
scalar FogSequentialForward.fog[96].server[0] droppedJobsTimout 0
scalar FogSequentialForward.fog[96].server[0] droppedJobsSLA 9220
scalar FogSequentialForward.fog[96].server[0] droppedJobsTotal 10004
scalar FogSequentialForward.fog[97].dispatcher localJobs 14781
scalar FogSequentialForward.fog[97].dispatcher internalJobs 16303
scalar FogSequentialForward.fog[97].dispatcher externalJobs 6023588
scalar FogSequentialForward.fog[97].dispatcher remoteJobs 6023749
scalar FogSequentialForward.fog[97].dispatcher probeQueries 0
scalar FogSequentialForward.fog[97].dispatcher probeAnswers 0
scalar FogSequentialForward.fog[97].dispatcher droppedJobsSLA 1361
scalar FogSequentialForward.fog[97].dispatcher jobs_class_1 6039891
scalar FogSequentialForward.fog[97].dispatcher remoteJobs_class_1 6023749
scalar FogSequentialForward.fog[97].dispatcher localJobs_class_1 14781
scalar FogSequentialForward.fog[97].dispatcher droppedJobsSLA_class_1 1361
scalar FogSequentialForward.fog[97].server[0] rho 0.99999648332596
scalar FogSequentialForward.fog[97].server[0] congestionRatio 0
scalar FogSequentialForward.fog[97].server[0] totalJobs 14781
scalar FogSequentialForward.fog[97].server[0] droppedJobsQueue 775
scalar FogSequentialForward.fog[97].server[0] droppedJobsTimout 0
scalar FogSequentialForward.fog[97].server[0] droppedJobsSLA 9101
scalar FogSequentialForward.fog[97].server[0] droppedJobsTotal 9876
scalar FogSequentialForward.fog[98].dispatcher localJobs 14841
scalar FogSequentialForward.fog[98].dispatcher internalJobs 16061
scalar FogSequentialForward.fog[98].dispatcher externalJobs 6025432
scalar FogSequentialForward.fog[98].dispatcher remoteJobs 6025243
scalar FogSequentialForward.fog[98].dispatcher probeQueries 0
scalar FogSequentialForward.fog[98].dispatcher probeAnswers 0
scalar FogSequentialForward.fog[98].dispatcher droppedJobsSLA 1409
scalar FogSequentialForward.fog[98].dispatcher jobs_class_1 6041493
scalar FogSequentialForward.fog[98].dispatcher remoteJobs_class_1 6025243
scalar FogSequentialForward.fog[98].dispatcher localJobs_class_1 14841
scalar FogSequentialForward.fog[98].dispatcher droppedJobsSLA_class_1 1409
scalar FogSequentialForward.fog[98].server[0] rho 0.99999618530273
scalar FogSequentialForward.fog[98].server[0] congestionRatio 0
scalar FogSequentialForward.fog[98].server[0] totalJobs 14841
scalar FogSequentialForward.fog[98].server[0] droppedJobsQueue 782
scalar FogSequentialForward.fog[98].server[0] droppedJobsTimout 0
scalar FogSequentialForward.fog[98].server[0] droppedJobsSLA 9130
scalar FogSequentialForward.fog[98].server[0] droppedJobsTotal 9912
scalar FogSequentialForward.fog[99].dispatcher localJobs 14901
scalar FogSequentialForward.fog[99].dispatcher internalJobs 16038
scalar FogSequentialForward.fog[99].dispatcher externalJobs 6023698
scalar FogSequentialForward.fog[99].dispatcher remoteJobs 6023497
scalar FogSequentialForward.fog[99].dispatcher probeQueries 0
scalar FogSequentialForward.fog[99].dispatcher probeAnswers 0
scalar FogSequentialForward.fog[99].dispatcher droppedJobsSLA 1338
scalar FogSequentialForward.fog[99].dispatcher jobs_class_1 6039736
scalar FogSequentialForward.fog[99].dispatcher remoteJobs_class_1 6023497
scalar FogSequentialForward.fog[99].dispatcher localJobs_class_1 14901
scalar FogSequentialForward.fog[99].dispatcher droppedJobsSLA_class_1 1338
scalar FogSequentialForward.fog[99].server[0] rho 0.9999942779541
scalar FogSequentialForward.fog[99].server[0] congestionRatio 0
scalar FogSequentialForward.fog[99].server[0] totalJobs 14901
scalar FogSequentialForward.fog[99].server[0] droppedJobsQueue 783
scalar FogSequentialForward.fog[99].server[0] droppedJobsTimout 0
scalar FogSequentialForward.fog[99].server[0] droppedJobsSLA 9203
scalar FogSequentialForward.fog[99].server[0] droppedJobsTotal 9986
scalar FogSequentialForward.sink avg_responseTime_1 12.151603352861
scalar FogSequentialForward.sink p90_responseTime_1 1.598900961942
scalar FogSequentialForward.sink med_responseTime_1 1.598900961942
scalar FogSequentialForward.sink avg_delayTime_1 0
scalar FogSequentialForward.sink p90_delayTime_1 0
scalar FogSequentialForward.sink med_delayTime_1 0
scalar FogSequentialForward.sink avg_queuingTime_1 7.5592816709608
scalar FogSequentialForward.sink p90_queuingTime_1 0
scalar FogSequentialForward.sink med_queuingTime_1 0
scalar FogSequentialForward.sink avg_serviceTime_1 1.6719724247371
scalar FogSequentialForward.sink p90_serviceTime_1 1.502214162563
scalar FogSequentialForward.sink med_serviceTime_1 1.502214162563
scalar FogSequentialForward.sink avg_balancerTime_1 2.9203492571631
scalar FogSequentialForward.sink p90_balancerTime_1 0
scalar FogSequentialForward.sink med_balancerTime_1 0
scalar FogSequentialForward.sink avg_balancerCount_1 175.87121300378
scalar FogSequentialForward.sink p90_balancerCount_1 1
scalar FogSequentialForward.sink med_balancerCount_1 1

