version 2
run Fog-mul_10-rho_05-thr_2-2-20190714-02:03:16-89699
attr configname Fog-mul_10-rho_05-thr_2
attr datetime 20190714-02:03:16
attr experiment Fog-mul_10-rho_05-thr_2
attr inifile FogSequentialForward.ini
attr iterationvars ""
attr iterationvarsf ""
attr measurement ""
attr network FogSequentialForward
attr processid 89699
attr repetition 2
attr replication #2
attr resultdir results
attr runnumber 2
attr seedset 2
param FogSequentialForward.proctimeMul 1.0
param FogSequentialForward.rho 0.5
param FogSequentialForward.fog[*].dispatcher.thr 2
param FogSequentialForward.nSources 100
param FogSequentialForward.rho 0.9
param FogSequentialForward.proctimeMul 1.0
param FogSequentialForward.source[*].appId 1
param FogSequentialForward.source[*].realTime true
param FogSequentialForward.source[*].multiHop true
param FogSequentialForward.fog[*].nServers 1
param FogSequentialForward.fog[*].dispatcher.fanOut 1
param FogSequentialForward.fog[*].server[*].timeSlice -1s
param FogSequentialForward.fog[*].server[*].timeout -1s
param FogSequentialForward.fog[*].server[*].capacity 20
param FogSequentialForward.fog[*].server[*].fifo true
param FogSequentialForward.fog[*].server[*].maxServiceTime -1s
param FogSequentialForward.fog[*].dispatcher.thr 1

scalar FogSequentialForward.fog[0].dispatcher localJobs 8939
scalar FogSequentialForward.fog[0].dispatcher internalJobs 8856
scalar FogSequentialForward.fog[0].dispatcher externalJobs 93935
scalar FogSequentialForward.fog[0].dispatcher remoteJobs 93852
scalar FogSequentialForward.fog[0].dispatcher probeQueries 0
scalar FogSequentialForward.fog[0].dispatcher probeAnswers 0
scalar FogSequentialForward.fog[0].dispatcher droppedJobsSLA 0
scalar FogSequentialForward.fog[0].dispatcher jobs_class_1 102791
scalar FogSequentialForward.fog[0].dispatcher remoteJobs_class_1 93852
scalar FogSequentialForward.fog[0].dispatcher localJobs_class_1 8939
scalar FogSequentialForward.fog[0].server[0] rho 0.99403631687164
scalar FogSequentialForward.fog[0].server[0] congestionRatio 0
scalar FogSequentialForward.fog[0].server[0] totalJobs 8939
scalar FogSequentialForward.fog[0].server[0] droppedJobsQueue 75
scalar FogSequentialForward.fog[0].server[0] droppedJobsTimout 0
scalar FogSequentialForward.fog[0].server[0] droppedJobsSLA 3155
scalar FogSequentialForward.fog[0].server[0] droppedJobsTotal 3230
scalar FogSequentialForward.fog[1].dispatcher localJobs 9028
scalar FogSequentialForward.fog[1].dispatcher internalJobs 8967
scalar FogSequentialForward.fog[1].dispatcher externalJobs 94304
scalar FogSequentialForward.fog[1].dispatcher remoteJobs 94243
scalar FogSequentialForward.fog[1].dispatcher probeQueries 0
scalar FogSequentialForward.fog[1].dispatcher probeAnswers 0
scalar FogSequentialForward.fog[1].dispatcher droppedJobsSLA 0
scalar FogSequentialForward.fog[1].dispatcher jobs_class_1 103271
scalar FogSequentialForward.fog[1].dispatcher remoteJobs_class_1 94243
scalar FogSequentialForward.fog[1].dispatcher localJobs_class_1 9028
scalar FogSequentialForward.fog[1].server[0] rho 0.99413996934891
scalar FogSequentialForward.fog[1].server[0] congestionRatio 0
scalar FogSequentialForward.fog[1].server[0] totalJobs 9028
scalar FogSequentialForward.fog[1].server[0] droppedJobsQueue 76
scalar FogSequentialForward.fog[1].server[0] droppedJobsTimout 0
scalar FogSequentialForward.fog[1].server[0] droppedJobsSLA 3244
scalar FogSequentialForward.fog[1].server[0] droppedJobsTotal 3320
scalar FogSequentialForward.fog[2].dispatcher localJobs 9176
scalar FogSequentialForward.fog[2].dispatcher internalJobs 9069
scalar FogSequentialForward.fog[2].dispatcher externalJobs 94025
scalar FogSequentialForward.fog[2].dispatcher remoteJobs 93918
scalar FogSequentialForward.fog[2].dispatcher probeQueries 0
scalar FogSequentialForward.fog[2].dispatcher probeAnswers 0
scalar FogSequentialForward.fog[2].dispatcher droppedJobsSLA 0
scalar FogSequentialForward.fog[2].dispatcher jobs_class_1 103094
scalar FogSequentialForward.fog[2].dispatcher remoteJobs_class_1 93918
scalar FogSequentialForward.fog[2].dispatcher localJobs_class_1 9176
scalar FogSequentialForward.fog[2].server[0] rho 0.9939689040184
scalar FogSequentialForward.fog[2].server[0] congestionRatio 0
scalar FogSequentialForward.fog[2].server[0] totalJobs 9176
scalar FogSequentialForward.fog[2].server[0] droppedJobsQueue 93
scalar FogSequentialForward.fog[2].server[0] droppedJobsTimout 0
scalar FogSequentialForward.fog[2].server[0] droppedJobsSLA 3367
scalar FogSequentialForward.fog[2].server[0] droppedJobsTotal 3460
scalar FogSequentialForward.fog[3].dispatcher localJobs 9148
scalar FogSequentialForward.fog[3].dispatcher internalJobs 8832
scalar FogSequentialForward.fog[3].dispatcher externalJobs 93743
scalar FogSequentialForward.fog[3].dispatcher remoteJobs 93427
scalar FogSequentialForward.fog[3].dispatcher probeQueries 0
scalar FogSequentialForward.fog[3].dispatcher probeAnswers 0
scalar FogSequentialForward.fog[3].dispatcher droppedJobsSLA 0
scalar FogSequentialForward.fog[3].dispatcher jobs_class_1 102575
scalar FogSequentialForward.fog[3].dispatcher remoteJobs_class_1 93427
scalar FogSequentialForward.fog[3].dispatcher localJobs_class_1 9148
scalar FogSequentialForward.fog[3].server[0] rho 0.99382054805756
scalar FogSequentialForward.fog[3].server[0] congestionRatio 0
scalar FogSequentialForward.fog[3].server[0] totalJobs 9148
scalar FogSequentialForward.fog[3].server[0] droppedJobsQueue 91
scalar FogSequentialForward.fog[3].server[0] droppedJobsTimout 0
scalar FogSequentialForward.fog[3].server[0] droppedJobsSLA 3367
scalar FogSequentialForward.fog[3].server[0] droppedJobsTotal 3458
scalar FogSequentialForward.fog[4].dispatcher localJobs 9024
scalar FogSequentialForward.fog[4].dispatcher internalJobs 8999
scalar FogSequentialForward.fog[4].dispatcher externalJobs 94102
scalar FogSequentialForward.fog[4].dispatcher remoteJobs 94077
scalar FogSequentialForward.fog[4].dispatcher probeQueries 0
scalar FogSequentialForward.fog[4].dispatcher probeAnswers 0
scalar FogSequentialForward.fog[4].dispatcher droppedJobsSLA 0
scalar FogSequentialForward.fog[4].dispatcher jobs_class_1 103101
scalar FogSequentialForward.fog[4].dispatcher remoteJobs_class_1 94077
scalar FogSequentialForward.fog[4].dispatcher localJobs_class_1 9024
scalar FogSequentialForward.fog[4].server[0] rho 0.99420887231827
scalar FogSequentialForward.fog[4].server[0] congestionRatio 0
scalar FogSequentialForward.fog[4].server[0] totalJobs 9024
scalar FogSequentialForward.fog[4].server[0] droppedJobsQueue 85
scalar FogSequentialForward.fog[4].server[0] droppedJobsTimout 0
scalar FogSequentialForward.fog[4].server[0] droppedJobsSLA 3214
scalar FogSequentialForward.fog[4].server[0] droppedJobsTotal 3299
scalar FogSequentialForward.fog[5].dispatcher localJobs 9055
scalar FogSequentialForward.fog[5].dispatcher internalJobs 9027
scalar FogSequentialForward.fog[5].dispatcher externalJobs 93810
scalar FogSequentialForward.fog[5].dispatcher remoteJobs 93782
scalar FogSequentialForward.fog[5].dispatcher probeQueries 0
scalar FogSequentialForward.fog[5].dispatcher probeAnswers 0
scalar FogSequentialForward.fog[5].dispatcher droppedJobsSLA 0
scalar FogSequentialForward.fog[5].dispatcher jobs_class_1 102837
scalar FogSequentialForward.fog[5].dispatcher remoteJobs_class_1 93782
scalar FogSequentialForward.fog[5].dispatcher localJobs_class_1 9055
scalar FogSequentialForward.fog[5].server[0] rho 0.99424356222153
scalar FogSequentialForward.fog[5].server[0] congestionRatio 0
scalar FogSequentialForward.fog[5].server[0] totalJobs 9055
scalar FogSequentialForward.fog[5].server[0] droppedJobsQueue 91
scalar FogSequentialForward.fog[5].server[0] droppedJobsTimout 0
scalar FogSequentialForward.fog[5].server[0] droppedJobsSLA 3274
scalar FogSequentialForward.fog[5].server[0] droppedJobsTotal 3365
scalar FogSequentialForward.fog[6].dispatcher localJobs 9043
scalar FogSequentialForward.fog[6].dispatcher internalJobs 8903
scalar FogSequentialForward.fog[6].dispatcher externalJobs 94233
scalar FogSequentialForward.fog[6].dispatcher remoteJobs 94093
scalar FogSequentialForward.fog[6].dispatcher probeQueries 0
scalar FogSequentialForward.fog[6].dispatcher probeAnswers 0
scalar FogSequentialForward.fog[6].dispatcher droppedJobsSLA 0
scalar FogSequentialForward.fog[6].dispatcher jobs_class_1 103136
scalar FogSequentialForward.fog[6].dispatcher remoteJobs_class_1 94093
scalar FogSequentialForward.fog[6].dispatcher localJobs_class_1 9043
scalar FogSequentialForward.fog[6].server[0] rho 0.99375385046005
scalar FogSequentialForward.fog[6].server[0] congestionRatio 0
scalar FogSequentialForward.fog[6].server[0] totalJobs 9043
scalar FogSequentialForward.fog[6].server[0] droppedJobsQueue 86
scalar FogSequentialForward.fog[6].server[0] droppedJobsTimout 0
scalar FogSequentialForward.fog[6].server[0] droppedJobsSLA 3231
scalar FogSequentialForward.fog[6].server[0] droppedJobsTotal 3317
scalar FogSequentialForward.fog[7].dispatcher localJobs 9034
scalar FogSequentialForward.fog[7].dispatcher internalJobs 9045
scalar FogSequentialForward.fog[7].dispatcher externalJobs 94283
scalar FogSequentialForward.fog[7].dispatcher remoteJobs 94294
scalar FogSequentialForward.fog[7].dispatcher probeQueries 0
scalar FogSequentialForward.fog[7].dispatcher probeAnswers 0
scalar FogSequentialForward.fog[7].dispatcher droppedJobsSLA 0
scalar FogSequentialForward.fog[7].dispatcher jobs_class_1 103328
scalar FogSequentialForward.fog[7].dispatcher remoteJobs_class_1 94294
scalar FogSequentialForward.fog[7].dispatcher localJobs_class_1 9034
scalar FogSequentialForward.fog[7].server[0] rho 0.99398076534271
scalar FogSequentialForward.fog[7].server[0] congestionRatio 0
scalar FogSequentialForward.fog[7].server[0] totalJobs 9034
scalar FogSequentialForward.fog[7].server[0] droppedJobsQueue 86
scalar FogSequentialForward.fog[7].server[0] droppedJobsTimout 0
scalar FogSequentialForward.fog[7].server[0] droppedJobsSLA 3236
scalar FogSequentialForward.fog[7].server[0] droppedJobsTotal 3322
scalar FogSequentialForward.fog[8].dispatcher localJobs 8896
scalar FogSequentialForward.fog[8].dispatcher internalJobs 8980
scalar FogSequentialForward.fog[8].dispatcher externalJobs 94074
scalar FogSequentialForward.fog[8].dispatcher remoteJobs 94158
scalar FogSequentialForward.fog[8].dispatcher probeQueries 0
scalar FogSequentialForward.fog[8].dispatcher probeAnswers 0
scalar FogSequentialForward.fog[8].dispatcher droppedJobsSLA 0
scalar FogSequentialForward.fog[8].dispatcher jobs_class_1 103054
scalar FogSequentialForward.fog[8].dispatcher remoteJobs_class_1 94158
scalar FogSequentialForward.fog[8].dispatcher localJobs_class_1 8896
scalar FogSequentialForward.fog[8].server[0] rho 0.99406182765961
scalar FogSequentialForward.fog[8].server[0] congestionRatio 0
scalar FogSequentialForward.fog[8].server[0] totalJobs 8896
scalar FogSequentialForward.fog[8].server[0] droppedJobsQueue 78
scalar FogSequentialForward.fog[8].server[0] droppedJobsTimout 0
scalar FogSequentialForward.fog[8].server[0] droppedJobsSLA 3082
scalar FogSequentialForward.fog[8].server[0] droppedJobsTotal 3160
scalar FogSequentialForward.fog[9].dispatcher localJobs 8997
scalar FogSequentialForward.fog[9].dispatcher internalJobs 9075
scalar FogSequentialForward.fog[9].dispatcher externalJobs 93947
scalar FogSequentialForward.fog[9].dispatcher remoteJobs 94025
scalar FogSequentialForward.fog[9].dispatcher probeQueries 0
scalar FogSequentialForward.fog[9].dispatcher probeAnswers 0
scalar FogSequentialForward.fog[9].dispatcher droppedJobsSLA 0
scalar FogSequentialForward.fog[9].dispatcher jobs_class_1 103022
scalar FogSequentialForward.fog[9].dispatcher remoteJobs_class_1 94025
scalar FogSequentialForward.fog[9].dispatcher localJobs_class_1 8997
scalar FogSequentialForward.fog[9].server[0] rho 0.99348276853561
scalar FogSequentialForward.fog[9].server[0] congestionRatio 0
scalar FogSequentialForward.fog[9].server[0] totalJobs 8997
scalar FogSequentialForward.fog[9].server[0] droppedJobsQueue 79
scalar FogSequentialForward.fog[9].server[0] droppedJobsTimout 0
scalar FogSequentialForward.fog[9].server[0] droppedJobsSLA 3232
scalar FogSequentialForward.fog[9].server[0] droppedJobsTotal 3311
scalar FogSequentialForward.fog[10].dispatcher localJobs 8983
scalar FogSequentialForward.fog[10].dispatcher internalJobs 9076
scalar FogSequentialForward.fog[10].dispatcher externalJobs 94551
scalar FogSequentialForward.fog[10].dispatcher remoteJobs 94644
scalar FogSequentialForward.fog[10].dispatcher probeQueries 0
scalar FogSequentialForward.fog[10].dispatcher probeAnswers 0
scalar FogSequentialForward.fog[10].dispatcher droppedJobsSLA 0
scalar FogSequentialForward.fog[10].dispatcher jobs_class_1 103627
scalar FogSequentialForward.fog[10].dispatcher remoteJobs_class_1 94644
scalar FogSequentialForward.fog[10].dispatcher localJobs_class_1 8983
scalar FogSequentialForward.fog[10].server[0] rho 0.99446797370911
scalar FogSequentialForward.fog[10].server[0] congestionRatio 0
scalar FogSequentialForward.fog[10].server[0] totalJobs 8983
scalar FogSequentialForward.fog[10].server[0] droppedJobsQueue 74
scalar FogSequentialForward.fog[10].server[0] droppedJobsTimout 0
scalar FogSequentialForward.fog[10].server[0] droppedJobsSLA 3219
scalar FogSequentialForward.fog[10].server[0] droppedJobsTotal 3293
scalar FogSequentialForward.fog[11].dispatcher localJobs 9010
scalar FogSequentialForward.fog[11].dispatcher internalJobs 8980
scalar FogSequentialForward.fog[11].dispatcher externalJobs 93570
scalar FogSequentialForward.fog[11].dispatcher remoteJobs 93540
scalar FogSequentialForward.fog[11].dispatcher probeQueries 0
scalar FogSequentialForward.fog[11].dispatcher probeAnswers 0
scalar FogSequentialForward.fog[11].dispatcher droppedJobsSLA 0
scalar FogSequentialForward.fog[11].dispatcher jobs_class_1 102550
scalar FogSequentialForward.fog[11].dispatcher remoteJobs_class_1 93540
scalar FogSequentialForward.fog[11].dispatcher localJobs_class_1 9010
scalar FogSequentialForward.fog[11].server[0] rho 0.99397969245911
scalar FogSequentialForward.fog[11].server[0] congestionRatio 0
scalar FogSequentialForward.fog[11].server[0] totalJobs 9010
scalar FogSequentialForward.fog[11].server[0] droppedJobsQueue 92
scalar FogSequentialForward.fog[11].server[0] droppedJobsTimout 0
scalar FogSequentialForward.fog[11].server[0] droppedJobsSLA 3192
scalar FogSequentialForward.fog[11].server[0] droppedJobsTotal 3284
scalar FogSequentialForward.fog[12].dispatcher localJobs 9125
scalar FogSequentialForward.fog[12].dispatcher internalJobs 8933
scalar FogSequentialForward.fog[12].dispatcher externalJobs 93844
scalar FogSequentialForward.fog[12].dispatcher remoteJobs 93652
scalar FogSequentialForward.fog[12].dispatcher probeQueries 0
scalar FogSequentialForward.fog[12].dispatcher probeAnswers 0
scalar FogSequentialForward.fog[12].dispatcher droppedJobsSLA 0
scalar FogSequentialForward.fog[12].dispatcher jobs_class_1 102777
scalar FogSequentialForward.fog[12].dispatcher remoteJobs_class_1 93652
scalar FogSequentialForward.fog[12].dispatcher localJobs_class_1 9125
scalar FogSequentialForward.fog[12].server[0] rho 0.99375522136688
scalar FogSequentialForward.fog[12].server[0] congestionRatio 0
scalar FogSequentialForward.fog[12].server[0] totalJobs 9125
scalar FogSequentialForward.fog[12].server[0] droppedJobsQueue 79
scalar FogSequentialForward.fog[12].server[0] droppedJobsTimout 0
scalar FogSequentialForward.fog[12].server[0] droppedJobsSLA 3349
scalar FogSequentialForward.fog[12].server[0] droppedJobsTotal 3428
scalar FogSequentialForward.fog[13].dispatcher localJobs 8989
scalar FogSequentialForward.fog[13].dispatcher internalJobs 8949
scalar FogSequentialForward.fog[13].dispatcher externalJobs 93551
scalar FogSequentialForward.fog[13].dispatcher remoteJobs 93511
scalar FogSequentialForward.fog[13].dispatcher probeQueries 0
scalar FogSequentialForward.fog[13].dispatcher probeAnswers 0
scalar FogSequentialForward.fog[13].dispatcher droppedJobsSLA 0
scalar FogSequentialForward.fog[13].dispatcher jobs_class_1 102500
scalar FogSequentialForward.fog[13].dispatcher remoteJobs_class_1 93511
scalar FogSequentialForward.fog[13].dispatcher localJobs_class_1 8989
scalar FogSequentialForward.fog[13].server[0] rho 0.99404710531235
scalar FogSequentialForward.fog[13].server[0] congestionRatio 0
scalar FogSequentialForward.fog[13].server[0] totalJobs 8989
scalar FogSequentialForward.fog[13].server[0] droppedJobsQueue 66
scalar FogSequentialForward.fog[13].server[0] droppedJobsTimout 0
scalar FogSequentialForward.fog[13].server[0] droppedJobsSLA 3222
scalar FogSequentialForward.fog[13].server[0] droppedJobsTotal 3288
scalar FogSequentialForward.fog[14].dispatcher localJobs 9090
scalar FogSequentialForward.fog[14].dispatcher internalJobs 9204
scalar FogSequentialForward.fog[14].dispatcher externalJobs 94384
scalar FogSequentialForward.fog[14].dispatcher remoteJobs 94498
scalar FogSequentialForward.fog[14].dispatcher probeQueries 0
scalar FogSequentialForward.fog[14].dispatcher probeAnswers 0
scalar FogSequentialForward.fog[14].dispatcher droppedJobsSLA 0
scalar FogSequentialForward.fog[14].dispatcher jobs_class_1 103588
scalar FogSequentialForward.fog[14].dispatcher remoteJobs_class_1 94498
scalar FogSequentialForward.fog[14].dispatcher localJobs_class_1 9090
scalar FogSequentialForward.fog[14].server[0] rho 0.99416261911392
scalar FogSequentialForward.fog[14].server[0] congestionRatio 0
scalar FogSequentialForward.fog[14].server[0] totalJobs 9090
scalar FogSequentialForward.fog[14].server[0] droppedJobsQueue 85
scalar FogSequentialForward.fog[14].server[0] droppedJobsTimout 0
scalar FogSequentialForward.fog[14].server[0] droppedJobsSLA 3296
scalar FogSequentialForward.fog[14].server[0] droppedJobsTotal 3381
scalar FogSequentialForward.fog[15].dispatcher localJobs 9102
scalar FogSequentialForward.fog[15].dispatcher internalJobs 9171
scalar FogSequentialForward.fog[15].dispatcher externalJobs 93938
scalar FogSequentialForward.fog[15].dispatcher remoteJobs 94007
scalar FogSequentialForward.fog[15].dispatcher probeQueries 0
scalar FogSequentialForward.fog[15].dispatcher probeAnswers 0
scalar FogSequentialForward.fog[15].dispatcher droppedJobsSLA 0
scalar FogSequentialForward.fog[15].dispatcher jobs_class_1 103109
scalar FogSequentialForward.fog[15].dispatcher remoteJobs_class_1 94007
scalar FogSequentialForward.fog[15].dispatcher localJobs_class_1 9102
scalar FogSequentialForward.fog[15].server[0] rho 0.99383616447449
scalar FogSequentialForward.fog[15].server[0] congestionRatio 0
scalar FogSequentialForward.fog[15].server[0] totalJobs 9102
scalar FogSequentialForward.fog[15].server[0] droppedJobsQueue 90
scalar FogSequentialForward.fog[15].server[0] droppedJobsTimout 0
scalar FogSequentialForward.fog[15].server[0] droppedJobsSLA 3326
scalar FogSequentialForward.fog[15].server[0] droppedJobsTotal 3416
scalar FogSequentialForward.fog[16].dispatcher localJobs 9047
scalar FogSequentialForward.fog[16].dispatcher internalJobs 9017
scalar FogSequentialForward.fog[16].dispatcher externalJobs 93870
scalar FogSequentialForward.fog[16].dispatcher remoteJobs 93840
scalar FogSequentialForward.fog[16].dispatcher probeQueries 0
scalar FogSequentialForward.fog[16].dispatcher probeAnswers 0
scalar FogSequentialForward.fog[16].dispatcher droppedJobsSLA 0
scalar FogSequentialForward.fog[16].dispatcher jobs_class_1 102887
scalar FogSequentialForward.fog[16].dispatcher remoteJobs_class_1 93840
scalar FogSequentialForward.fog[16].dispatcher localJobs_class_1 9047
scalar FogSequentialForward.fog[16].server[0] rho 0.99360144138336
scalar FogSequentialForward.fog[16].server[0] congestionRatio 0
scalar FogSequentialForward.fog[16].server[0] totalJobs 9047
scalar FogSequentialForward.fog[16].server[0] droppedJobsQueue 82
scalar FogSequentialForward.fog[16].server[0] droppedJobsTimout 0
scalar FogSequentialForward.fog[16].server[0] droppedJobsSLA 3268
scalar FogSequentialForward.fog[16].server[0] droppedJobsTotal 3350
scalar FogSequentialForward.fog[17].dispatcher localJobs 8952
scalar FogSequentialForward.fog[17].dispatcher internalJobs 8932
scalar FogSequentialForward.fog[17].dispatcher externalJobs 93452
scalar FogSequentialForward.fog[17].dispatcher remoteJobs 93432
scalar FogSequentialForward.fog[17].dispatcher probeQueries 0
scalar FogSequentialForward.fog[17].dispatcher probeAnswers 0
scalar FogSequentialForward.fog[17].dispatcher droppedJobsSLA 0
scalar FogSequentialForward.fog[17].dispatcher jobs_class_1 102384
scalar FogSequentialForward.fog[17].dispatcher remoteJobs_class_1 93432
scalar FogSequentialForward.fog[17].dispatcher localJobs_class_1 8952
scalar FogSequentialForward.fog[17].server[0] rho 0.99395197629929
scalar FogSequentialForward.fog[17].server[0] congestionRatio 0
scalar FogSequentialForward.fog[17].server[0] totalJobs 8952
scalar FogSequentialForward.fog[17].server[0] droppedJobsQueue 75
scalar FogSequentialForward.fog[17].server[0] droppedJobsTimout 0
scalar FogSequentialForward.fog[17].server[0] droppedJobsSLA 3139
scalar FogSequentialForward.fog[17].server[0] droppedJobsTotal 3214
scalar FogSequentialForward.fog[18].dispatcher localJobs 8824
scalar FogSequentialForward.fog[18].dispatcher internalJobs 9096
scalar FogSequentialForward.fog[18].dispatcher externalJobs 93468
scalar FogSequentialForward.fog[18].dispatcher remoteJobs 93740
scalar FogSequentialForward.fog[18].dispatcher probeQueries 0
scalar FogSequentialForward.fog[18].dispatcher probeAnswers 0
scalar FogSequentialForward.fog[18].dispatcher droppedJobsSLA 0
scalar FogSequentialForward.fog[18].dispatcher jobs_class_1 102564
scalar FogSequentialForward.fog[18].dispatcher remoteJobs_class_1 93740
scalar FogSequentialForward.fog[18].dispatcher localJobs_class_1 8824
scalar FogSequentialForward.fog[18].server[0] rho 0.99361336231232
scalar FogSequentialForward.fog[18].server[0] congestionRatio 0
scalar FogSequentialForward.fog[18].server[0] totalJobs 8824
scalar FogSequentialForward.fog[18].server[0] droppedJobsQueue 56
scalar FogSequentialForward.fog[18].server[0] droppedJobsTimout 0
scalar FogSequentialForward.fog[18].server[0] droppedJobsSLA 3075
scalar FogSequentialForward.fog[18].server[0] droppedJobsTotal 3131
scalar FogSequentialForward.fog[19].dispatcher localJobs 9144
scalar FogSequentialForward.fog[19].dispatcher internalJobs 9195
scalar FogSequentialForward.fog[19].dispatcher externalJobs 93597
scalar FogSequentialForward.fog[19].dispatcher remoteJobs 93648
scalar FogSequentialForward.fog[19].dispatcher probeQueries 0
scalar FogSequentialForward.fog[19].dispatcher probeAnswers 0
scalar FogSequentialForward.fog[19].dispatcher droppedJobsSLA 0
scalar FogSequentialForward.fog[19].dispatcher jobs_class_1 102792
scalar FogSequentialForward.fog[19].dispatcher remoteJobs_class_1 93648
scalar FogSequentialForward.fog[19].dispatcher localJobs_class_1 9144
scalar FogSequentialForward.fog[19].server[0] rho 0.99411803483963
scalar FogSequentialForward.fog[19].server[0] congestionRatio 0
scalar FogSequentialForward.fog[19].server[0] totalJobs 9144
scalar FogSequentialForward.fog[19].server[0] droppedJobsQueue 77
scalar FogSequentialForward.fog[19].server[0] droppedJobsTimout 0
scalar FogSequentialForward.fog[19].server[0] droppedJobsSLA 3364
scalar FogSequentialForward.fog[19].server[0] droppedJobsTotal 3441
scalar FogSequentialForward.fog[20].dispatcher localJobs 9089
scalar FogSequentialForward.fog[20].dispatcher internalJobs 8945
scalar FogSequentialForward.fog[20].dispatcher externalJobs 94114
scalar FogSequentialForward.fog[20].dispatcher remoteJobs 93970
scalar FogSequentialForward.fog[20].dispatcher probeQueries 0
scalar FogSequentialForward.fog[20].dispatcher probeAnswers 0
scalar FogSequentialForward.fog[20].dispatcher droppedJobsSLA 0
scalar FogSequentialForward.fog[20].dispatcher jobs_class_1 103059
scalar FogSequentialForward.fog[20].dispatcher remoteJobs_class_1 93970
scalar FogSequentialForward.fog[20].dispatcher localJobs_class_1 9089
scalar FogSequentialForward.fog[20].server[0] rho 0.99398821592331
scalar FogSequentialForward.fog[20].server[0] congestionRatio 0
scalar FogSequentialForward.fog[20].server[0] totalJobs 9089
scalar FogSequentialForward.fog[20].server[0] droppedJobsQueue 83
scalar FogSequentialForward.fog[20].server[0] droppedJobsTimout 0
scalar FogSequentialForward.fog[20].server[0] droppedJobsSLA 3305
scalar FogSequentialForward.fog[20].server[0] droppedJobsTotal 3388
scalar FogSequentialForward.fog[21].dispatcher localJobs 9192
scalar FogSequentialForward.fog[21].dispatcher internalJobs 9137
scalar FogSequentialForward.fog[21].dispatcher externalJobs 94191
scalar FogSequentialForward.fog[21].dispatcher remoteJobs 94136
scalar FogSequentialForward.fog[21].dispatcher probeQueries 0
scalar FogSequentialForward.fog[21].dispatcher probeAnswers 0
scalar FogSequentialForward.fog[21].dispatcher droppedJobsSLA 0
scalar FogSequentialForward.fog[21].dispatcher jobs_class_1 103328
scalar FogSequentialForward.fog[21].dispatcher remoteJobs_class_1 94136
scalar FogSequentialForward.fog[21].dispatcher localJobs_class_1 9192
scalar FogSequentialForward.fog[21].server[0] rho 0.99422538280487
scalar FogSequentialForward.fog[21].server[0] congestionRatio 0
scalar FogSequentialForward.fog[21].server[0] totalJobs 9192
scalar FogSequentialForward.fog[21].server[0] droppedJobsQueue 93
scalar FogSequentialForward.fog[21].server[0] droppedJobsTimout 0
scalar FogSequentialForward.fog[21].server[0] droppedJobsSLA 3367
scalar FogSequentialForward.fog[21].server[0] droppedJobsTotal 3460
scalar FogSequentialForward.fog[22].dispatcher localJobs 9037
scalar FogSequentialForward.fog[22].dispatcher internalJobs 9031
scalar FogSequentialForward.fog[22].dispatcher externalJobs 94192
scalar FogSequentialForward.fog[22].dispatcher remoteJobs 94186
scalar FogSequentialForward.fog[22].dispatcher probeQueries 0
scalar FogSequentialForward.fog[22].dispatcher probeAnswers 0
scalar FogSequentialForward.fog[22].dispatcher droppedJobsSLA 0
scalar FogSequentialForward.fog[22].dispatcher jobs_class_1 103223
scalar FogSequentialForward.fog[22].dispatcher remoteJobs_class_1 94186
scalar FogSequentialForward.fog[22].dispatcher localJobs_class_1 9037
scalar FogSequentialForward.fog[22].server[0] rho 0.99408668279648
scalar FogSequentialForward.fog[22].server[0] congestionRatio 0
scalar FogSequentialForward.fog[22].server[0] totalJobs 9037
scalar FogSequentialForward.fog[22].server[0] droppedJobsQueue 87
scalar FogSequentialForward.fog[22].server[0] droppedJobsTimout 0
scalar FogSequentialForward.fog[22].server[0] droppedJobsSLA 3264
scalar FogSequentialForward.fog[22].server[0] droppedJobsTotal 3351
scalar FogSequentialForward.fog[23].dispatcher localJobs 8884
scalar FogSequentialForward.fog[23].dispatcher internalJobs 8867
scalar FogSequentialForward.fog[23].dispatcher externalJobs 94073
scalar FogSequentialForward.fog[23].dispatcher remoteJobs 94056
scalar FogSequentialForward.fog[23].dispatcher probeQueries 0
scalar FogSequentialForward.fog[23].dispatcher probeAnswers 0
scalar FogSequentialForward.fog[23].dispatcher droppedJobsSLA 0
scalar FogSequentialForward.fog[23].dispatcher jobs_class_1 102940
scalar FogSequentialForward.fog[23].dispatcher remoteJobs_class_1 94056
scalar FogSequentialForward.fog[23].dispatcher localJobs_class_1 8884
scalar FogSequentialForward.fog[23].server[0] rho 0.99375373125076
scalar FogSequentialForward.fog[23].server[0] congestionRatio 0
scalar FogSequentialForward.fog[23].server[0] totalJobs 8884
scalar FogSequentialForward.fog[23].server[0] droppedJobsQueue 81
scalar FogSequentialForward.fog[23].server[0] droppedJobsTimout 0
scalar FogSequentialForward.fog[23].server[0] droppedJobsSLA 3081
scalar FogSequentialForward.fog[23].server[0] droppedJobsTotal 3162
scalar FogSequentialForward.fog[24].dispatcher localJobs 9114
scalar FogSequentialForward.fog[24].dispatcher internalJobs 9054
scalar FogSequentialForward.fog[24].dispatcher externalJobs 93850
scalar FogSequentialForward.fog[24].dispatcher remoteJobs 93790
scalar FogSequentialForward.fog[24].dispatcher probeQueries 0
scalar FogSequentialForward.fog[24].dispatcher probeAnswers 0
scalar FogSequentialForward.fog[24].dispatcher droppedJobsSLA 0
scalar FogSequentialForward.fog[24].dispatcher jobs_class_1 102904
scalar FogSequentialForward.fog[24].dispatcher remoteJobs_class_1 93790
scalar FogSequentialForward.fog[24].dispatcher localJobs_class_1 9114
scalar FogSequentialForward.fog[24].server[0] rho 0.99414640665054
scalar FogSequentialForward.fog[24].server[0] congestionRatio 0
scalar FogSequentialForward.fog[24].server[0] totalJobs 9114
scalar FogSequentialForward.fog[24].server[0] droppedJobsQueue 85
scalar FogSequentialForward.fog[24].server[0] droppedJobsTimout 0
scalar FogSequentialForward.fog[24].server[0] droppedJobsSLA 3345
scalar FogSequentialForward.fog[24].server[0] droppedJobsTotal 3430
scalar FogSequentialForward.fog[25].dispatcher localJobs 9029
scalar FogSequentialForward.fog[25].dispatcher internalJobs 9207
scalar FogSequentialForward.fog[25].dispatcher externalJobs 93933
scalar FogSequentialForward.fog[25].dispatcher remoteJobs 94111
scalar FogSequentialForward.fog[25].dispatcher probeQueries 0
scalar FogSequentialForward.fog[25].dispatcher probeAnswers 0
scalar FogSequentialForward.fog[25].dispatcher droppedJobsSLA 0
scalar FogSequentialForward.fog[25].dispatcher jobs_class_1 103140
scalar FogSequentialForward.fog[25].dispatcher remoteJobs_class_1 94111
scalar FogSequentialForward.fog[25].dispatcher localJobs_class_1 9029
scalar FogSequentialForward.fog[25].server[0] rho 0.99408107995987
scalar FogSequentialForward.fog[25].server[0] congestionRatio 0
scalar FogSequentialForward.fog[25].server[0] totalJobs 9029
scalar FogSequentialForward.fog[25].server[0] droppedJobsQueue 81
scalar FogSequentialForward.fog[25].server[0] droppedJobsTimout 0
scalar FogSequentialForward.fog[25].server[0] droppedJobsSLA 3242
scalar FogSequentialForward.fog[25].server[0] droppedJobsTotal 3323
scalar FogSequentialForward.fog[26].dispatcher localJobs 9245
scalar FogSequentialForward.fog[26].dispatcher internalJobs 9161
scalar FogSequentialForward.fog[26].dispatcher externalJobs 94308
scalar FogSequentialForward.fog[26].dispatcher remoteJobs 94224
scalar FogSequentialForward.fog[26].dispatcher probeQueries 0
scalar FogSequentialForward.fog[26].dispatcher probeAnswers 0
scalar FogSequentialForward.fog[26].dispatcher droppedJobsSLA 0
scalar FogSequentialForward.fog[26].dispatcher jobs_class_1 103469
scalar FogSequentialForward.fog[26].dispatcher remoteJobs_class_1 94224
scalar FogSequentialForward.fog[26].dispatcher localJobs_class_1 9245
scalar FogSequentialForward.fog[26].server[0] rho 0.99368584156036
scalar FogSequentialForward.fog[26].server[0] congestionRatio 0
scalar FogSequentialForward.fog[26].server[0] totalJobs 9245
scalar FogSequentialForward.fog[26].server[0] droppedJobsQueue 90
scalar FogSequentialForward.fog[26].server[0] droppedJobsTimout 0
scalar FogSequentialForward.fog[26].server[0] droppedJobsSLA 3473
scalar FogSequentialForward.fog[26].server[0] droppedJobsTotal 3563
scalar FogSequentialForward.fog[27].dispatcher localJobs 9115
scalar FogSequentialForward.fog[27].dispatcher internalJobs 8928
scalar FogSequentialForward.fog[27].dispatcher externalJobs 93689
scalar FogSequentialForward.fog[27].dispatcher remoteJobs 93502
scalar FogSequentialForward.fog[27].dispatcher probeQueries 0
scalar FogSequentialForward.fog[27].dispatcher probeAnswers 0
scalar FogSequentialForward.fog[27].dispatcher droppedJobsSLA 0
scalar FogSequentialForward.fog[27].dispatcher jobs_class_1 102617
scalar FogSequentialForward.fog[27].dispatcher remoteJobs_class_1 93502
scalar FogSequentialForward.fog[27].dispatcher localJobs_class_1 9115
scalar FogSequentialForward.fog[27].server[0] rho 0.99385249614716
scalar FogSequentialForward.fog[27].server[0] congestionRatio 0
scalar FogSequentialForward.fog[27].server[0] totalJobs 9115
scalar FogSequentialForward.fog[27].server[0] droppedJobsQueue 90
scalar FogSequentialForward.fog[27].server[0] droppedJobsTimout 0
scalar FogSequentialForward.fog[27].server[0] droppedJobsSLA 3365
scalar FogSequentialForward.fog[27].server[0] droppedJobsTotal 3455
scalar FogSequentialForward.fog[28].dispatcher localJobs 8936
scalar FogSequentialForward.fog[28].dispatcher internalJobs 9067
scalar FogSequentialForward.fog[28].dispatcher externalJobs 94185
scalar FogSequentialForward.fog[28].dispatcher remoteJobs 94316
scalar FogSequentialForward.fog[28].dispatcher probeQueries 0
scalar FogSequentialForward.fog[28].dispatcher probeAnswers 0
scalar FogSequentialForward.fog[28].dispatcher droppedJobsSLA 0
scalar FogSequentialForward.fog[28].dispatcher jobs_class_1 103252
scalar FogSequentialForward.fog[28].dispatcher remoteJobs_class_1 94316
scalar FogSequentialForward.fog[28].dispatcher localJobs_class_1 8936
scalar FogSequentialForward.fog[28].server[0] rho 0.99333053827286
scalar FogSequentialForward.fog[28].server[0] congestionRatio 0
scalar FogSequentialForward.fog[28].server[0] totalJobs 8936
scalar FogSequentialForward.fog[28].server[0] droppedJobsQueue 73
scalar FogSequentialForward.fog[28].server[0] droppedJobsTimout 0
scalar FogSequentialForward.fog[28].server[0] droppedJobsSLA 3167
scalar FogSequentialForward.fog[28].server[0] droppedJobsTotal 3240
scalar FogSequentialForward.fog[29].dispatcher localJobs 9016
scalar FogSequentialForward.fog[29].dispatcher internalJobs 9211
scalar FogSequentialForward.fog[29].dispatcher externalJobs 93855
scalar FogSequentialForward.fog[29].dispatcher remoteJobs 94050
scalar FogSequentialForward.fog[29].dispatcher probeQueries 0
scalar FogSequentialForward.fog[29].dispatcher probeAnswers 0
scalar FogSequentialForward.fog[29].dispatcher droppedJobsSLA 0
scalar FogSequentialForward.fog[29].dispatcher jobs_class_1 103066
scalar FogSequentialForward.fog[29].dispatcher remoteJobs_class_1 94050
scalar FogSequentialForward.fog[29].dispatcher localJobs_class_1 9016
scalar FogSequentialForward.fog[29].server[0] rho 0.99370181560516
scalar FogSequentialForward.fog[29].server[0] congestionRatio 0
scalar FogSequentialForward.fog[29].server[0] totalJobs 9016
scalar FogSequentialForward.fog[29].server[0] droppedJobsQueue 87
scalar FogSequentialForward.fog[29].server[0] droppedJobsTimout 0
scalar FogSequentialForward.fog[29].server[0] droppedJobsSLA 3234
scalar FogSequentialForward.fog[29].server[0] droppedJobsTotal 3321
scalar FogSequentialForward.fog[30].dispatcher localJobs 8909
scalar FogSequentialForward.fog[30].dispatcher internalJobs 9037
scalar FogSequentialForward.fog[30].dispatcher externalJobs 93369
scalar FogSequentialForward.fog[30].dispatcher remoteJobs 93497
scalar FogSequentialForward.fog[30].dispatcher probeQueries 0
scalar FogSequentialForward.fog[30].dispatcher probeAnswers 0
scalar FogSequentialForward.fog[30].dispatcher droppedJobsSLA 0
scalar FogSequentialForward.fog[30].dispatcher jobs_class_1 102406
scalar FogSequentialForward.fog[30].dispatcher remoteJobs_class_1 93497
scalar FogSequentialForward.fog[30].dispatcher localJobs_class_1 8909
scalar FogSequentialForward.fog[30].server[0] rho 0.99356818199158
scalar FogSequentialForward.fog[30].server[0] congestionRatio 0
scalar FogSequentialForward.fog[30].server[0] totalJobs 8909
scalar FogSequentialForward.fog[30].server[0] droppedJobsQueue 72
scalar FogSequentialForward.fog[30].server[0] droppedJobsTimout 0
scalar FogSequentialForward.fog[30].server[0] droppedJobsSLA 3114
scalar FogSequentialForward.fog[30].server[0] droppedJobsTotal 3186
scalar FogSequentialForward.fog[31].dispatcher localJobs 9007
scalar FogSequentialForward.fog[31].dispatcher internalJobs 9088
scalar FogSequentialForward.fog[31].dispatcher externalJobs 93504
scalar FogSequentialForward.fog[31].dispatcher remoteJobs 93585
scalar FogSequentialForward.fog[31].dispatcher probeQueries 0
scalar FogSequentialForward.fog[31].dispatcher probeAnswers 0
scalar FogSequentialForward.fog[31].dispatcher droppedJobsSLA 0
scalar FogSequentialForward.fog[31].dispatcher jobs_class_1 102592
scalar FogSequentialForward.fog[31].dispatcher remoteJobs_class_1 93585
scalar FogSequentialForward.fog[31].dispatcher localJobs_class_1 9007
scalar FogSequentialForward.fog[31].server[0] rho 0.99390524625778
scalar FogSequentialForward.fog[31].server[0] congestionRatio 0
scalar FogSequentialForward.fog[31].server[0] totalJobs 9007
scalar FogSequentialForward.fog[31].server[0] droppedJobsQueue 78
scalar FogSequentialForward.fog[31].server[0] droppedJobsTimout 0
scalar FogSequentialForward.fog[31].server[0] droppedJobsSLA 3233
scalar FogSequentialForward.fog[31].server[0] droppedJobsTotal 3311
scalar FogSequentialForward.fog[32].dispatcher localJobs 9176
scalar FogSequentialForward.fog[32].dispatcher internalJobs 8943
scalar FogSequentialForward.fog[32].dispatcher externalJobs 93821
scalar FogSequentialForward.fog[32].dispatcher remoteJobs 93588
scalar FogSequentialForward.fog[32].dispatcher probeQueries 0
scalar FogSequentialForward.fog[32].dispatcher probeAnswers 0
scalar FogSequentialForward.fog[32].dispatcher droppedJobsSLA 0
scalar FogSequentialForward.fog[32].dispatcher jobs_class_1 102764
scalar FogSequentialForward.fog[32].dispatcher remoteJobs_class_1 93588
scalar FogSequentialForward.fog[32].dispatcher localJobs_class_1 9176
scalar FogSequentialForward.fog[32].server[0] rho 0.99367994070053
scalar FogSequentialForward.fog[32].server[0] congestionRatio 0
scalar FogSequentialForward.fog[32].server[0] totalJobs 9176
scalar FogSequentialForward.fog[32].server[0] droppedJobsQueue 90
scalar FogSequentialForward.fog[32].server[0] droppedJobsTimout 0
scalar FogSequentialForward.fog[32].server[0] droppedJobsSLA 3394
scalar FogSequentialForward.fog[32].server[0] droppedJobsTotal 3484
scalar FogSequentialForward.fog[33].dispatcher localJobs 9091
scalar FogSequentialForward.fog[33].dispatcher internalJobs 9249
scalar FogSequentialForward.fog[33].dispatcher externalJobs 93700
scalar FogSequentialForward.fog[33].dispatcher remoteJobs 93858
scalar FogSequentialForward.fog[33].dispatcher probeQueries 0
scalar FogSequentialForward.fog[33].dispatcher probeAnswers 0
scalar FogSequentialForward.fog[33].dispatcher droppedJobsSLA 0
scalar FogSequentialForward.fog[33].dispatcher jobs_class_1 102949
scalar FogSequentialForward.fog[33].dispatcher remoteJobs_class_1 93858
scalar FogSequentialForward.fog[33].dispatcher localJobs_class_1 9091
scalar FogSequentialForward.fog[33].server[0] rho 0.9939101934433
scalar FogSequentialForward.fog[33].server[0] congestionRatio 0
scalar FogSequentialForward.fog[33].server[0] totalJobs 9091
scalar FogSequentialForward.fog[33].server[0] droppedJobsQueue 80
scalar FogSequentialForward.fog[33].server[0] droppedJobsTimout 0
scalar FogSequentialForward.fog[33].server[0] droppedJobsSLA 3306
scalar FogSequentialForward.fog[33].server[0] droppedJobsTotal 3386
scalar FogSequentialForward.fog[34].dispatcher localJobs 8974
scalar FogSequentialForward.fog[34].dispatcher internalJobs 8877
scalar FogSequentialForward.fog[34].dispatcher externalJobs 93641
scalar FogSequentialForward.fog[34].dispatcher remoteJobs 93544
scalar FogSequentialForward.fog[34].dispatcher probeQueries 0
scalar FogSequentialForward.fog[34].dispatcher probeAnswers 0
scalar FogSequentialForward.fog[34].dispatcher droppedJobsSLA 0
scalar FogSequentialForward.fog[34].dispatcher jobs_class_1 102518
scalar FogSequentialForward.fog[34].dispatcher remoteJobs_class_1 93544
scalar FogSequentialForward.fog[34].dispatcher localJobs_class_1 8974
scalar FogSequentialForward.fog[34].server[0] rho 0.99383395910263
scalar FogSequentialForward.fog[34].server[0] congestionRatio 0
scalar FogSequentialForward.fog[34].server[0] totalJobs 8974
scalar FogSequentialForward.fog[34].server[0] droppedJobsQueue 86
scalar FogSequentialForward.fog[34].server[0] droppedJobsTimout 0
scalar FogSequentialForward.fog[34].server[0] droppedJobsSLA 3195
scalar FogSequentialForward.fog[34].server[0] droppedJobsTotal 3281
scalar FogSequentialForward.fog[35].dispatcher localJobs 9019
scalar FogSequentialForward.fog[35].dispatcher internalJobs 8969
scalar FogSequentialForward.fog[35].dispatcher externalJobs 93576
scalar FogSequentialForward.fog[35].dispatcher remoteJobs 93526
scalar FogSequentialForward.fog[35].dispatcher probeQueries 0
scalar FogSequentialForward.fog[35].dispatcher probeAnswers 0
scalar FogSequentialForward.fog[35].dispatcher droppedJobsSLA 0
scalar FogSequentialForward.fog[35].dispatcher jobs_class_1 102545
scalar FogSequentialForward.fog[35].dispatcher remoteJobs_class_1 93526
scalar FogSequentialForward.fog[35].dispatcher localJobs_class_1 9019
scalar FogSequentialForward.fog[35].server[0] rho 0.99389350414276
scalar FogSequentialForward.fog[35].server[0] congestionRatio 0
scalar FogSequentialForward.fog[35].server[0] totalJobs 9019
scalar FogSequentialForward.fog[35].server[0] droppedJobsQueue 76
scalar FogSequentialForward.fog[35].server[0] droppedJobsTimout 0
scalar FogSequentialForward.fog[35].server[0] droppedJobsSLA 3217
scalar FogSequentialForward.fog[35].server[0] droppedJobsTotal 3293
scalar FogSequentialForward.fog[36].dispatcher localJobs 9014
scalar FogSequentialForward.fog[36].dispatcher internalJobs 9117
scalar FogSequentialForward.fog[36].dispatcher externalJobs 93605
scalar FogSequentialForward.fog[36].dispatcher remoteJobs 93708
scalar FogSequentialForward.fog[36].dispatcher probeQueries 0
scalar FogSequentialForward.fog[36].dispatcher probeAnswers 0
scalar FogSequentialForward.fog[36].dispatcher droppedJobsSLA 0
scalar FogSequentialForward.fog[36].dispatcher jobs_class_1 102722
scalar FogSequentialForward.fog[36].dispatcher remoteJobs_class_1 93708
scalar FogSequentialForward.fog[36].dispatcher localJobs_class_1 9014
scalar FogSequentialForward.fog[36].server[0] rho 0.99414199590683
scalar FogSequentialForward.fog[36].server[0] congestionRatio 0
scalar FogSequentialForward.fog[36].server[0] totalJobs 9014
scalar FogSequentialForward.fog[36].server[0] droppedJobsQueue 74
scalar FogSequentialForward.fog[36].server[0] droppedJobsTimout 0
scalar FogSequentialForward.fog[36].server[0] droppedJobsSLA 3233
scalar FogSequentialForward.fog[36].server[0] droppedJobsTotal 3307
scalar FogSequentialForward.fog[37].dispatcher localJobs 8993
scalar FogSequentialForward.fog[37].dispatcher internalJobs 9061
scalar FogSequentialForward.fog[37].dispatcher externalJobs 93706
scalar FogSequentialForward.fog[37].dispatcher remoteJobs 93774
scalar FogSequentialForward.fog[37].dispatcher probeQueries 0
scalar FogSequentialForward.fog[37].dispatcher probeAnswers 0
scalar FogSequentialForward.fog[37].dispatcher droppedJobsSLA 0
scalar FogSequentialForward.fog[37].dispatcher jobs_class_1 102767
scalar FogSequentialForward.fog[37].dispatcher remoteJobs_class_1 93774
scalar FogSequentialForward.fog[37].dispatcher localJobs_class_1 8993
scalar FogSequentialForward.fog[37].server[0] rho 0.9938508272171
scalar FogSequentialForward.fog[37].server[0] congestionRatio 0
scalar FogSequentialForward.fog[37].server[0] totalJobs 8993
scalar FogSequentialForward.fog[37].server[0] droppedJobsQueue 67
scalar FogSequentialForward.fog[37].server[0] droppedJobsTimout 0
scalar FogSequentialForward.fog[37].server[0] droppedJobsSLA 3214
scalar FogSequentialForward.fog[37].server[0] droppedJobsTotal 3281
scalar FogSequentialForward.fog[38].dispatcher localJobs 9039
scalar FogSequentialForward.fog[38].dispatcher internalJobs 9039
scalar FogSequentialForward.fog[38].dispatcher externalJobs 94247
scalar FogSequentialForward.fog[38].dispatcher remoteJobs 94247
scalar FogSequentialForward.fog[38].dispatcher probeQueries 0
scalar FogSequentialForward.fog[38].dispatcher probeAnswers 0
scalar FogSequentialForward.fog[38].dispatcher droppedJobsSLA 0
scalar FogSequentialForward.fog[38].dispatcher jobs_class_1 103286
scalar FogSequentialForward.fog[38].dispatcher remoteJobs_class_1 94247
scalar FogSequentialForward.fog[38].dispatcher localJobs_class_1 9039
scalar FogSequentialForward.fog[38].server[0] rho 0.99411350488663
scalar FogSequentialForward.fog[38].server[0] congestionRatio 0
scalar FogSequentialForward.fog[38].server[0] totalJobs 9039
scalar FogSequentialForward.fog[38].server[0] droppedJobsQueue 76
scalar FogSequentialForward.fog[38].server[0] droppedJobsTimout 0
scalar FogSequentialForward.fog[38].server[0] droppedJobsSLA 3256
scalar FogSequentialForward.fog[38].server[0] droppedJobsTotal 3332
scalar FogSequentialForward.fog[39].dispatcher localJobs 8778
scalar FogSequentialForward.fog[39].dispatcher internalJobs 9165
scalar FogSequentialForward.fog[39].dispatcher externalJobs 93505
scalar FogSequentialForward.fog[39].dispatcher remoteJobs 93892
scalar FogSequentialForward.fog[39].dispatcher probeQueries 0
scalar FogSequentialForward.fog[39].dispatcher probeAnswers 0
scalar FogSequentialForward.fog[39].dispatcher droppedJobsSLA 0
scalar FogSequentialForward.fog[39].dispatcher jobs_class_1 102670
scalar FogSequentialForward.fog[39].dispatcher remoteJobs_class_1 93892
scalar FogSequentialForward.fog[39].dispatcher localJobs_class_1 8778
scalar FogSequentialForward.fog[39].server[0] rho 0.99385976791382
scalar FogSequentialForward.fog[39].server[0] congestionRatio 0
scalar FogSequentialForward.fog[39].server[0] totalJobs 8778
scalar FogSequentialForward.fog[39].server[0] droppedJobsQueue 60
scalar FogSequentialForward.fog[39].server[0] droppedJobsTimout 0
scalar FogSequentialForward.fog[39].server[0] droppedJobsSLA 2987
scalar FogSequentialForward.fog[39].server[0] droppedJobsTotal 3047
scalar FogSequentialForward.fog[40].dispatcher localJobs 9134
scalar FogSequentialForward.fog[40].dispatcher internalJobs 9079
scalar FogSequentialForward.fog[40].dispatcher externalJobs 93960
scalar FogSequentialForward.fog[40].dispatcher remoteJobs 93905
scalar FogSequentialForward.fog[40].dispatcher probeQueries 0
scalar FogSequentialForward.fog[40].dispatcher probeAnswers 0
scalar FogSequentialForward.fog[40].dispatcher droppedJobsSLA 0
scalar FogSequentialForward.fog[40].dispatcher jobs_class_1 103039
scalar FogSequentialForward.fog[40].dispatcher remoteJobs_class_1 93905
scalar FogSequentialForward.fog[40].dispatcher localJobs_class_1 9134
scalar FogSequentialForward.fog[40].server[0] rho 0.99381220340729
scalar FogSequentialForward.fog[40].server[0] congestionRatio 0
scalar FogSequentialForward.fog[40].server[0] totalJobs 9134
scalar FogSequentialForward.fog[40].server[0] droppedJobsQueue 93
scalar FogSequentialForward.fog[40].server[0] droppedJobsTimout 0
scalar FogSequentialForward.fog[40].server[0] droppedJobsSLA 3362
scalar FogSequentialForward.fog[40].server[0] droppedJobsTotal 3455
scalar FogSequentialForward.fog[41].dispatcher localJobs 8986
scalar FogSequentialForward.fog[41].dispatcher internalJobs 8887
scalar FogSequentialForward.fog[41].dispatcher externalJobs 94408
scalar FogSequentialForward.fog[41].dispatcher remoteJobs 94309
scalar FogSequentialForward.fog[41].dispatcher probeQueries 0
scalar FogSequentialForward.fog[41].dispatcher probeAnswers 0
scalar FogSequentialForward.fog[41].dispatcher droppedJobsSLA 0
scalar FogSequentialForward.fog[41].dispatcher jobs_class_1 103295
scalar FogSequentialForward.fog[41].dispatcher remoteJobs_class_1 94309
scalar FogSequentialForward.fog[41].dispatcher localJobs_class_1 8986
scalar FogSequentialForward.fog[41].server[0] rho 0.99409919977188
scalar FogSequentialForward.fog[41].server[0] congestionRatio 0
scalar FogSequentialForward.fog[41].server[0] totalJobs 8986
scalar FogSequentialForward.fog[41].server[0] droppedJobsQueue 74
scalar FogSequentialForward.fog[41].server[0] droppedJobsTimout 0
scalar FogSequentialForward.fog[41].server[0] droppedJobsSLA 3219
scalar FogSequentialForward.fog[41].server[0] droppedJobsTotal 3293
scalar FogSequentialForward.fog[42].dispatcher localJobs 9155
scalar FogSequentialForward.fog[42].dispatcher internalJobs 8885
scalar FogSequentialForward.fog[42].dispatcher externalJobs 93647
scalar FogSequentialForward.fog[42].dispatcher remoteJobs 93377
scalar FogSequentialForward.fog[42].dispatcher probeQueries 0
scalar FogSequentialForward.fog[42].dispatcher probeAnswers 0
scalar FogSequentialForward.fog[42].dispatcher droppedJobsSLA 0
scalar FogSequentialForward.fog[42].dispatcher jobs_class_1 102532
scalar FogSequentialForward.fog[42].dispatcher remoteJobs_class_1 93377
scalar FogSequentialForward.fog[42].dispatcher localJobs_class_1 9155
scalar FogSequentialForward.fog[42].server[0] rho 0.99428814649582
scalar FogSequentialForward.fog[42].server[0] congestionRatio 0
scalar FogSequentialForward.fog[42].server[0] totalJobs 9155
scalar FogSequentialForward.fog[42].server[0] droppedJobsQueue 80
scalar FogSequentialForward.fog[42].server[0] droppedJobsTimout 0
scalar FogSequentialForward.fog[42].server[0] droppedJobsSLA 3363
scalar FogSequentialForward.fog[42].server[0] droppedJobsTotal 3443
scalar FogSequentialForward.fog[43].dispatcher localJobs 9022
scalar FogSequentialForward.fog[43].dispatcher internalJobs 8992
scalar FogSequentialForward.fog[43].dispatcher externalJobs 94400
scalar FogSequentialForward.fog[43].dispatcher remoteJobs 94370
scalar FogSequentialForward.fog[43].dispatcher probeQueries 0
scalar FogSequentialForward.fog[43].dispatcher probeAnswers 0
scalar FogSequentialForward.fog[43].dispatcher droppedJobsSLA 0
scalar FogSequentialForward.fog[43].dispatcher jobs_class_1 103392
scalar FogSequentialForward.fog[43].dispatcher remoteJobs_class_1 94370
scalar FogSequentialForward.fog[43].dispatcher localJobs_class_1 9022
scalar FogSequentialForward.fog[43].server[0] rho 0.99380362033844
scalar FogSequentialForward.fog[43].server[0] congestionRatio 0
scalar FogSequentialForward.fog[43].server[0] totalJobs 9022
scalar FogSequentialForward.fog[43].server[0] droppedJobsQueue 65
scalar FogSequentialForward.fog[43].server[0] droppedJobsTimout 0
scalar FogSequentialForward.fog[43].server[0] droppedJobsSLA 3272
scalar FogSequentialForward.fog[43].server[0] droppedJobsTotal 3337
scalar FogSequentialForward.fog[44].dispatcher localJobs 9020
scalar FogSequentialForward.fog[44].dispatcher internalJobs 9099
scalar FogSequentialForward.fog[44].dispatcher externalJobs 93686
scalar FogSequentialForward.fog[44].dispatcher remoteJobs 93765
scalar FogSequentialForward.fog[44].dispatcher probeQueries 0
scalar FogSequentialForward.fog[44].dispatcher probeAnswers 0
scalar FogSequentialForward.fog[44].dispatcher droppedJobsSLA 0
scalar FogSequentialForward.fog[44].dispatcher jobs_class_1 102785
scalar FogSequentialForward.fog[44].dispatcher remoteJobs_class_1 93765
scalar FogSequentialForward.fog[44].dispatcher localJobs_class_1 9020
scalar FogSequentialForward.fog[44].server[0] rho 0.99391037225723
scalar FogSequentialForward.fog[44].server[0] congestionRatio 0
scalar FogSequentialForward.fog[44].server[0] totalJobs 9020
scalar FogSequentialForward.fog[44].server[0] droppedJobsQueue 68
scalar FogSequentialForward.fog[44].server[0] droppedJobsTimout 0
scalar FogSequentialForward.fog[44].server[0] droppedJobsSLA 3255
scalar FogSequentialForward.fog[44].server[0] droppedJobsTotal 3323
scalar FogSequentialForward.fog[45].dispatcher localJobs 8935
scalar FogSequentialForward.fog[45].dispatcher internalJobs 9080
scalar FogSequentialForward.fog[45].dispatcher externalJobs 93563
scalar FogSequentialForward.fog[45].dispatcher remoteJobs 93708
scalar FogSequentialForward.fog[45].dispatcher probeQueries 0
scalar FogSequentialForward.fog[45].dispatcher probeAnswers 0
scalar FogSequentialForward.fog[45].dispatcher droppedJobsSLA 0
scalar FogSequentialForward.fog[45].dispatcher jobs_class_1 102643
scalar FogSequentialForward.fog[45].dispatcher remoteJobs_class_1 93708
scalar FogSequentialForward.fog[45].dispatcher localJobs_class_1 8935
scalar FogSequentialForward.fog[45].server[0] rho 0.99351036548615
scalar FogSequentialForward.fog[45].server[0] congestionRatio 0
scalar FogSequentialForward.fog[45].server[0] totalJobs 8935
scalar FogSequentialForward.fog[45].server[0] droppedJobsQueue 79
scalar FogSequentialForward.fog[45].server[0] droppedJobsTimout 0
scalar FogSequentialForward.fog[45].server[0] droppedJobsSLA 3145
scalar FogSequentialForward.fog[45].server[0] droppedJobsTotal 3224
scalar FogSequentialForward.fog[46].dispatcher localJobs 9051
scalar FogSequentialForward.fog[46].dispatcher internalJobs 9077
scalar FogSequentialForward.fog[46].dispatcher externalJobs 93301
scalar FogSequentialForward.fog[46].dispatcher remoteJobs 93327
scalar FogSequentialForward.fog[46].dispatcher probeQueries 0
scalar FogSequentialForward.fog[46].dispatcher probeAnswers 0
scalar FogSequentialForward.fog[46].dispatcher droppedJobsSLA 0
scalar FogSequentialForward.fog[46].dispatcher jobs_class_1 102378
scalar FogSequentialForward.fog[46].dispatcher remoteJobs_class_1 93327
scalar FogSequentialForward.fog[46].dispatcher localJobs_class_1 9051
scalar FogSequentialForward.fog[46].server[0] rho 0.99400681257248
scalar FogSequentialForward.fog[46].server[0] congestionRatio 0
scalar FogSequentialForward.fog[46].server[0] totalJobs 9051
scalar FogSequentialForward.fog[46].server[0] droppedJobsQueue 91
scalar FogSequentialForward.fog[46].server[0] droppedJobsTimout 0
scalar FogSequentialForward.fog[46].server[0] droppedJobsSLA 3267
scalar FogSequentialForward.fog[46].server[0] droppedJobsTotal 3358
scalar FogSequentialForward.fog[47].dispatcher localJobs 9125
scalar FogSequentialForward.fog[47].dispatcher internalJobs 9104
scalar FogSequentialForward.fog[47].dispatcher externalJobs 93688
scalar FogSequentialForward.fog[47].dispatcher remoteJobs 93667
scalar FogSequentialForward.fog[47].dispatcher probeQueries 0
scalar FogSequentialForward.fog[47].dispatcher probeAnswers 0
scalar FogSequentialForward.fog[47].dispatcher droppedJobsSLA 0
scalar FogSequentialForward.fog[47].dispatcher jobs_class_1 102792
scalar FogSequentialForward.fog[47].dispatcher remoteJobs_class_1 93667
scalar FogSequentialForward.fog[47].dispatcher localJobs_class_1 9125
scalar FogSequentialForward.fog[47].server[0] rho 0.99402165412903
scalar FogSequentialForward.fog[47].server[0] congestionRatio 0
scalar FogSequentialForward.fog[47].server[0] totalJobs 9125
scalar FogSequentialForward.fog[47].server[0] droppedJobsQueue 88
scalar FogSequentialForward.fog[47].server[0] droppedJobsTimout 0
scalar FogSequentialForward.fog[47].server[0] droppedJobsSLA 3342
scalar FogSequentialForward.fog[47].server[0] droppedJobsTotal 3430
scalar FogSequentialForward.fog[48].dispatcher localJobs 9017
scalar FogSequentialForward.fog[48].dispatcher internalJobs 8954
scalar FogSequentialForward.fog[48].dispatcher externalJobs 93902
scalar FogSequentialForward.fog[48].dispatcher remoteJobs 93839
scalar FogSequentialForward.fog[48].dispatcher probeQueries 0
scalar FogSequentialForward.fog[48].dispatcher probeAnswers 0
scalar FogSequentialForward.fog[48].dispatcher droppedJobsSLA 0
scalar FogSequentialForward.fog[48].dispatcher jobs_class_1 102856
scalar FogSequentialForward.fog[48].dispatcher remoteJobs_class_1 93839
scalar FogSequentialForward.fog[48].dispatcher localJobs_class_1 9017
scalar FogSequentialForward.fog[48].server[0] rho 0.99409192800522
scalar FogSequentialForward.fog[48].server[0] congestionRatio 0
scalar FogSequentialForward.fog[48].server[0] totalJobs 9017
scalar FogSequentialForward.fog[48].server[0] droppedJobsQueue 70
scalar FogSequentialForward.fog[48].server[0] droppedJobsTimout 0
scalar FogSequentialForward.fog[48].server[0] droppedJobsSLA 3257
scalar FogSequentialForward.fog[48].server[0] droppedJobsTotal 3327
scalar FogSequentialForward.fog[49].dispatcher localJobs 8927
scalar FogSequentialForward.fog[49].dispatcher internalJobs 8950
scalar FogSequentialForward.fog[49].dispatcher externalJobs 93653
scalar FogSequentialForward.fog[49].dispatcher remoteJobs 93676
scalar FogSequentialForward.fog[49].dispatcher probeQueries 0
scalar FogSequentialForward.fog[49].dispatcher probeAnswers 0
scalar FogSequentialForward.fog[49].dispatcher droppedJobsSLA 0
scalar FogSequentialForward.fog[49].dispatcher jobs_class_1 102603
scalar FogSequentialForward.fog[49].dispatcher remoteJobs_class_1 93676
scalar FogSequentialForward.fog[49].dispatcher localJobs_class_1 8927
scalar FogSequentialForward.fog[49].server[0] rho 0.99395114183426
scalar FogSequentialForward.fog[49].server[0] congestionRatio 0
scalar FogSequentialForward.fog[49].server[0] totalJobs 8927
scalar FogSequentialForward.fog[49].server[0] droppedJobsQueue 74
scalar FogSequentialForward.fog[49].server[0] droppedJobsTimout 0
scalar FogSequentialForward.fog[49].server[0] droppedJobsSLA 3130
scalar FogSequentialForward.fog[49].server[0] droppedJobsTotal 3204
scalar FogSequentialForward.fog[50].dispatcher localJobs 8853
scalar FogSequentialForward.fog[50].dispatcher internalJobs 9130
scalar FogSequentialForward.fog[50].dispatcher externalJobs 93833
scalar FogSequentialForward.fog[50].dispatcher remoteJobs 94110
scalar FogSequentialForward.fog[50].dispatcher probeQueries 0
scalar FogSequentialForward.fog[50].dispatcher probeAnswers 0
scalar FogSequentialForward.fog[50].dispatcher droppedJobsSLA 0
scalar FogSequentialForward.fog[50].dispatcher jobs_class_1 102963
scalar FogSequentialForward.fog[50].dispatcher remoteJobs_class_1 94110
scalar FogSequentialForward.fog[50].dispatcher localJobs_class_1 8853
scalar FogSequentialForward.fog[50].server[0] rho 0.99368685483932
scalar FogSequentialForward.fog[50].server[0] congestionRatio 0
scalar FogSequentialForward.fog[50].server[0] totalJobs 8853
scalar FogSequentialForward.fog[50].server[0] droppedJobsQueue 74
scalar FogSequentialForward.fog[50].server[0] droppedJobsTimout 0
scalar FogSequentialForward.fog[50].server[0] droppedJobsSLA 3059
scalar FogSequentialForward.fog[50].server[0] droppedJobsTotal 3133
scalar FogSequentialForward.fog[51].dispatcher localJobs 9112
scalar FogSequentialForward.fog[51].dispatcher internalJobs 9172
scalar FogSequentialForward.fog[51].dispatcher externalJobs 94549
scalar FogSequentialForward.fog[51].dispatcher remoteJobs 94609
scalar FogSequentialForward.fog[51].dispatcher probeQueries 0
scalar FogSequentialForward.fog[51].dispatcher probeAnswers 0
scalar FogSequentialForward.fog[51].dispatcher droppedJobsSLA 0
scalar FogSequentialForward.fog[51].dispatcher jobs_class_1 103721
scalar FogSequentialForward.fog[51].dispatcher remoteJobs_class_1 94609
scalar FogSequentialForward.fog[51].dispatcher localJobs_class_1 9112
scalar FogSequentialForward.fog[51].server[0] rho 0.99365538358688
scalar FogSequentialForward.fog[51].server[0] congestionRatio 0
scalar FogSequentialForward.fog[51].server[0] totalJobs 9112
scalar FogSequentialForward.fog[51].server[0] droppedJobsQueue 85
scalar FogSequentialForward.fog[51].server[0] droppedJobsTimout 0
scalar FogSequentialForward.fog[51].server[0] droppedJobsSLA 3333
scalar FogSequentialForward.fog[51].server[0] droppedJobsTotal 3418
scalar FogSequentialForward.fog[52].dispatcher localJobs 9084
scalar FogSequentialForward.fog[52].dispatcher internalJobs 9046
scalar FogSequentialForward.fog[52].dispatcher externalJobs 93977
scalar FogSequentialForward.fog[52].dispatcher remoteJobs 93939
scalar FogSequentialForward.fog[52].dispatcher probeQueries 0
scalar FogSequentialForward.fog[52].dispatcher probeAnswers 0
scalar FogSequentialForward.fog[52].dispatcher droppedJobsSLA 0
scalar FogSequentialForward.fog[52].dispatcher jobs_class_1 103023
scalar FogSequentialForward.fog[52].dispatcher remoteJobs_class_1 93939
scalar FogSequentialForward.fog[52].dispatcher localJobs_class_1 9084
scalar FogSequentialForward.fog[52].server[0] rho 0.99418586492538
scalar FogSequentialForward.fog[52].server[0] congestionRatio 0
scalar FogSequentialForward.fog[52].server[0] totalJobs 9084
scalar FogSequentialForward.fog[52].server[0] droppedJobsQueue 83
scalar FogSequentialForward.fog[52].server[0] droppedJobsTimout 0
scalar FogSequentialForward.fog[52].server[0] droppedJobsSLA 3307
scalar FogSequentialForward.fog[52].server[0] droppedJobsTotal 3390
scalar FogSequentialForward.fog[53].dispatcher localJobs 8821
scalar FogSequentialForward.fog[53].dispatcher internalJobs 9252
scalar FogSequentialForward.fog[53].dispatcher externalJobs 93868
scalar FogSequentialForward.fog[53].dispatcher remoteJobs 94299
scalar FogSequentialForward.fog[53].dispatcher probeQueries 0
scalar FogSequentialForward.fog[53].dispatcher probeAnswers 0
scalar FogSequentialForward.fog[53].dispatcher droppedJobsSLA 0
scalar FogSequentialForward.fog[53].dispatcher jobs_class_1 103120
scalar FogSequentialForward.fog[53].dispatcher remoteJobs_class_1 94299
scalar FogSequentialForward.fog[53].dispatcher localJobs_class_1 8821
scalar FogSequentialForward.fog[53].server[0] rho 0.99398958683014
scalar FogSequentialForward.fog[53].server[0] congestionRatio 0
scalar FogSequentialForward.fog[53].server[0] totalJobs 8821
scalar FogSequentialForward.fog[53].server[0] droppedJobsQueue 58
scalar FogSequentialForward.fog[53].server[0] droppedJobsTimout 0
scalar FogSequentialForward.fog[53].server[0] droppedJobsSLA 3049
scalar FogSequentialForward.fog[53].server[0] droppedJobsTotal 3107
scalar FogSequentialForward.fog[54].dispatcher localJobs 8916
scalar FogSequentialForward.fog[54].dispatcher internalJobs 9055
scalar FogSequentialForward.fog[54].dispatcher externalJobs 94087
scalar FogSequentialForward.fog[54].dispatcher remoteJobs 94226
scalar FogSequentialForward.fog[54].dispatcher probeQueries 0
scalar FogSequentialForward.fog[54].dispatcher probeAnswers 0
scalar FogSequentialForward.fog[54].dispatcher droppedJobsSLA 0
scalar FogSequentialForward.fog[54].dispatcher jobs_class_1 103142
scalar FogSequentialForward.fog[54].dispatcher remoteJobs_class_1 94226
scalar FogSequentialForward.fog[54].dispatcher localJobs_class_1 8916
scalar FogSequentialForward.fog[54].server[0] rho 0.99404555559158
scalar FogSequentialForward.fog[54].server[0] congestionRatio 0
scalar FogSequentialForward.fog[54].server[0] totalJobs 8916
scalar FogSequentialForward.fog[54].server[0] droppedJobsQueue 73
scalar FogSequentialForward.fog[54].server[0] droppedJobsTimout 0
scalar FogSequentialForward.fog[54].server[0] droppedJobsSLA 3094
scalar FogSequentialForward.fog[54].server[0] droppedJobsTotal 3167
scalar FogSequentialForward.fog[55].dispatcher localJobs 9050
scalar FogSequentialForward.fog[55].dispatcher internalJobs 8890
scalar FogSequentialForward.fog[55].dispatcher externalJobs 94408
scalar FogSequentialForward.fog[55].dispatcher remoteJobs 94248
scalar FogSequentialForward.fog[55].dispatcher probeQueries 0
scalar FogSequentialForward.fog[55].dispatcher probeAnswers 0
scalar FogSequentialForward.fog[55].dispatcher droppedJobsSLA 0
scalar FogSequentialForward.fog[55].dispatcher jobs_class_1 103298
scalar FogSequentialForward.fog[55].dispatcher remoteJobs_class_1 94248
scalar FogSequentialForward.fog[55].dispatcher localJobs_class_1 9050
scalar FogSequentialForward.fog[55].server[0] rho 0.99442112445831
scalar FogSequentialForward.fog[55].server[0] congestionRatio 0
scalar FogSequentialForward.fog[55].server[0] totalJobs 9050
scalar FogSequentialForward.fog[55].server[0] droppedJobsQueue 85
scalar FogSequentialForward.fog[55].server[0] droppedJobsTimout 0
scalar FogSequentialForward.fog[55].server[0] droppedJobsSLA 3252
scalar FogSequentialForward.fog[55].server[0] droppedJobsTotal 3337
scalar FogSequentialForward.fog[56].dispatcher localJobs 9251
scalar FogSequentialForward.fog[56].dispatcher internalJobs 9020
scalar FogSequentialForward.fog[56].dispatcher externalJobs 93903
scalar FogSequentialForward.fog[56].dispatcher remoteJobs 93672
scalar FogSequentialForward.fog[56].dispatcher probeQueries 0
scalar FogSequentialForward.fog[56].dispatcher probeAnswers 0
scalar FogSequentialForward.fog[56].dispatcher droppedJobsSLA 0
scalar FogSequentialForward.fog[56].dispatcher jobs_class_1 102923
scalar FogSequentialForward.fog[56].dispatcher remoteJobs_class_1 93672
scalar FogSequentialForward.fog[56].dispatcher localJobs_class_1 9251
scalar FogSequentialForward.fog[56].server[0] rho 0.99390596151352
scalar FogSequentialForward.fog[56].server[0] congestionRatio 0
scalar FogSequentialForward.fog[56].server[0] totalJobs 9251
scalar FogSequentialForward.fog[56].server[0] droppedJobsQueue 92
scalar FogSequentialForward.fog[56].server[0] droppedJobsTimout 0
scalar FogSequentialForward.fog[56].server[0] droppedJobsSLA 3496
scalar FogSequentialForward.fog[56].server[0] droppedJobsTotal 3588
scalar FogSequentialForward.fog[57].dispatcher localJobs 8851
scalar FogSequentialForward.fog[57].dispatcher internalJobs 9257
scalar FogSequentialForward.fog[57].dispatcher externalJobs 93265
scalar FogSequentialForward.fog[57].dispatcher remoteJobs 93671
scalar FogSequentialForward.fog[57].dispatcher probeQueries 0
scalar FogSequentialForward.fog[57].dispatcher probeAnswers 0
scalar FogSequentialForward.fog[57].dispatcher droppedJobsSLA 0
scalar FogSequentialForward.fog[57].dispatcher jobs_class_1 102522
scalar FogSequentialForward.fog[57].dispatcher remoteJobs_class_1 93671
scalar FogSequentialForward.fog[57].dispatcher localJobs_class_1 8851
scalar FogSequentialForward.fog[57].server[0] rho 0.99357539415359
scalar FogSequentialForward.fog[57].server[0] congestionRatio 0
scalar FogSequentialForward.fog[57].server[0] totalJobs 8851
scalar FogSequentialForward.fog[57].server[0] droppedJobsQueue 65
scalar FogSequentialForward.fog[57].server[0] droppedJobsTimout 0
scalar FogSequentialForward.fog[57].server[0] droppedJobsSLA 3099
scalar FogSequentialForward.fog[57].server[0] droppedJobsTotal 3164
scalar FogSequentialForward.fog[58].dispatcher localJobs 8935
scalar FogSequentialForward.fog[58].dispatcher internalJobs 8952
scalar FogSequentialForward.fog[58].dispatcher externalJobs 93840
scalar FogSequentialForward.fog[58].dispatcher remoteJobs 93857
scalar FogSequentialForward.fog[58].dispatcher probeQueries 0
scalar FogSequentialForward.fog[58].dispatcher probeAnswers 0
scalar FogSequentialForward.fog[58].dispatcher droppedJobsSLA 0
scalar FogSequentialForward.fog[58].dispatcher jobs_class_1 102792
scalar FogSequentialForward.fog[58].dispatcher remoteJobs_class_1 93857
scalar FogSequentialForward.fog[58].dispatcher localJobs_class_1 8935
scalar FogSequentialForward.fog[58].server[0] rho 0.99391287565231
scalar FogSequentialForward.fog[58].server[0] congestionRatio 0
scalar FogSequentialForward.fog[58].server[0] totalJobs 8935
scalar FogSequentialForward.fog[58].server[0] droppedJobsQueue 70
scalar FogSequentialForward.fog[58].server[0] droppedJobsTimout 0
scalar FogSequentialForward.fog[58].server[0] droppedJobsSLA 3152
scalar FogSequentialForward.fog[58].server[0] droppedJobsTotal 3222
scalar FogSequentialForward.fog[59].dispatcher localJobs 8942
scalar FogSequentialForward.fog[59].dispatcher internalJobs 8932
scalar FogSequentialForward.fog[59].dispatcher externalJobs 93518
scalar FogSequentialForward.fog[59].dispatcher remoteJobs 93508
scalar FogSequentialForward.fog[59].dispatcher probeQueries 0
scalar FogSequentialForward.fog[59].dispatcher probeAnswers 0
scalar FogSequentialForward.fog[59].dispatcher droppedJobsSLA 0
scalar FogSequentialForward.fog[59].dispatcher jobs_class_1 102450
scalar FogSequentialForward.fog[59].dispatcher remoteJobs_class_1 93508
scalar FogSequentialForward.fog[59].dispatcher localJobs_class_1 8942
scalar FogSequentialForward.fog[59].server[0] rho 0.99389398097992
scalar FogSequentialForward.fog[59].server[0] congestionRatio 0
scalar FogSequentialForward.fog[59].server[0] totalJobs 8942
scalar FogSequentialForward.fog[59].server[0] droppedJobsQueue 74
scalar FogSequentialForward.fog[59].server[0] droppedJobsTimout 0
scalar FogSequentialForward.fog[59].server[0] droppedJobsSLA 3181
scalar FogSequentialForward.fog[59].server[0] droppedJobsTotal 3255
scalar FogSequentialForward.fog[60].dispatcher localJobs 9138
scalar FogSequentialForward.fog[60].dispatcher internalJobs 9022
scalar FogSequentialForward.fog[60].dispatcher externalJobs 93997
scalar FogSequentialForward.fog[60].dispatcher remoteJobs 93881
scalar FogSequentialForward.fog[60].dispatcher probeQueries 0
scalar FogSequentialForward.fog[60].dispatcher probeAnswers 0
scalar FogSequentialForward.fog[60].dispatcher droppedJobsSLA 0
scalar FogSequentialForward.fog[60].dispatcher jobs_class_1 103019
scalar FogSequentialForward.fog[60].dispatcher remoteJobs_class_1 93881
scalar FogSequentialForward.fog[60].dispatcher localJobs_class_1 9138
scalar FogSequentialForward.fog[60].server[0] rho 0.99409228563309
scalar FogSequentialForward.fog[60].server[0] congestionRatio 0
scalar FogSequentialForward.fog[60].server[0] totalJobs 9138
scalar FogSequentialForward.fog[60].server[0] droppedJobsQueue 68
scalar FogSequentialForward.fog[60].server[0] droppedJobsTimout 0
scalar FogSequentialForward.fog[60].server[0] droppedJobsSLA 3399
scalar FogSequentialForward.fog[60].server[0] droppedJobsTotal 3467
scalar FogSequentialForward.fog[61].dispatcher localJobs 8931
scalar FogSequentialForward.fog[61].dispatcher internalJobs 9056
scalar FogSequentialForward.fog[61].dispatcher externalJobs 94125
scalar FogSequentialForward.fog[61].dispatcher remoteJobs 94250
scalar FogSequentialForward.fog[61].dispatcher probeQueries 0
scalar FogSequentialForward.fog[61].dispatcher probeAnswers 0
scalar FogSequentialForward.fog[61].dispatcher droppedJobsSLA 0
scalar FogSequentialForward.fog[61].dispatcher jobs_class_1 103181
scalar FogSequentialForward.fog[61].dispatcher remoteJobs_class_1 94250
scalar FogSequentialForward.fog[61].dispatcher localJobs_class_1 8931
scalar FogSequentialForward.fog[61].server[0] rho 0.99385339021683
scalar FogSequentialForward.fog[61].server[0] congestionRatio 0
scalar FogSequentialForward.fog[61].server[0] totalJobs 8931
scalar FogSequentialForward.fog[61].server[0] droppedJobsQueue 60
scalar FogSequentialForward.fog[61].server[0] droppedJobsTimout 0
scalar FogSequentialForward.fog[61].server[0] droppedJobsSLA 3164
scalar FogSequentialForward.fog[61].server[0] droppedJobsTotal 3224
scalar FogSequentialForward.fog[62].dispatcher localJobs 8892
scalar FogSequentialForward.fog[62].dispatcher internalJobs 9093
scalar FogSequentialForward.fog[62].dispatcher externalJobs 93787
scalar FogSequentialForward.fog[62].dispatcher remoteJobs 93988
scalar FogSequentialForward.fog[62].dispatcher probeQueries 0
scalar FogSequentialForward.fog[62].dispatcher probeAnswers 0
scalar FogSequentialForward.fog[62].dispatcher droppedJobsSLA 0
scalar FogSequentialForward.fog[62].dispatcher jobs_class_1 102880
scalar FogSequentialForward.fog[62].dispatcher remoteJobs_class_1 93988
scalar FogSequentialForward.fog[62].dispatcher localJobs_class_1 8892
scalar FogSequentialForward.fog[62].server[0] rho 0.99407643079758
scalar FogSequentialForward.fog[62].server[0] congestionRatio 0
scalar FogSequentialForward.fog[62].server[0] totalJobs 8892
scalar FogSequentialForward.fog[62].server[0] droppedJobsQueue 70
scalar FogSequentialForward.fog[62].server[0] droppedJobsTimout 0
scalar FogSequentialForward.fog[62].server[0] droppedJobsSLA 3089
scalar FogSequentialForward.fog[62].server[0] droppedJobsTotal 3159
scalar FogSequentialForward.fog[63].dispatcher localJobs 9043
scalar FogSequentialForward.fog[63].dispatcher internalJobs 9099
scalar FogSequentialForward.fog[63].dispatcher externalJobs 94033
scalar FogSequentialForward.fog[63].dispatcher remoteJobs 94089
scalar FogSequentialForward.fog[63].dispatcher probeQueries 0
scalar FogSequentialForward.fog[63].dispatcher probeAnswers 0
scalar FogSequentialForward.fog[63].dispatcher droppedJobsSLA 0
scalar FogSequentialForward.fog[63].dispatcher jobs_class_1 103132
scalar FogSequentialForward.fog[63].dispatcher remoteJobs_class_1 94089
scalar FogSequentialForward.fog[63].dispatcher localJobs_class_1 9043
scalar FogSequentialForward.fog[63].server[0] rho 0.99359077215195
scalar FogSequentialForward.fog[63].server[0] congestionRatio 0
scalar FogSequentialForward.fog[63].server[0] totalJobs 9043
scalar FogSequentialForward.fog[63].server[0] droppedJobsQueue 76
scalar FogSequentialForward.fog[63].server[0] droppedJobsTimout 0
scalar FogSequentialForward.fog[63].server[0] droppedJobsSLA 3314
scalar FogSequentialForward.fog[63].server[0] droppedJobsTotal 3390
scalar FogSequentialForward.fog[64].dispatcher localJobs 9014
scalar FogSequentialForward.fog[64].dispatcher internalJobs 8856
scalar FogSequentialForward.fog[64].dispatcher externalJobs 94022
scalar FogSequentialForward.fog[64].dispatcher remoteJobs 93864
scalar FogSequentialForward.fog[64].dispatcher probeQueries 0
scalar FogSequentialForward.fog[64].dispatcher probeAnswers 0
scalar FogSequentialForward.fog[64].dispatcher droppedJobsSLA 0
scalar FogSequentialForward.fog[64].dispatcher jobs_class_1 102878
scalar FogSequentialForward.fog[64].dispatcher remoteJobs_class_1 93864
scalar FogSequentialForward.fog[64].dispatcher localJobs_class_1 9014
scalar FogSequentialForward.fog[64].server[0] rho 0.99436414241791
scalar FogSequentialForward.fog[64].server[0] congestionRatio 0
scalar FogSequentialForward.fog[64].server[0] totalJobs 9014
scalar FogSequentialForward.fog[64].server[0] droppedJobsQueue 86
scalar FogSequentialForward.fog[64].server[0] droppedJobsTimout 0
scalar FogSequentialForward.fog[64].server[0] droppedJobsSLA 3201
scalar FogSequentialForward.fog[64].server[0] droppedJobsTotal 3287
scalar FogSequentialForward.fog[65].dispatcher localJobs 9061
scalar FogSequentialForward.fog[65].dispatcher internalJobs 8934
scalar FogSequentialForward.fog[65].dispatcher externalJobs 94428
scalar FogSequentialForward.fog[65].dispatcher remoteJobs 94301
scalar FogSequentialForward.fog[65].dispatcher probeQueries 0
scalar FogSequentialForward.fog[65].dispatcher probeAnswers 0
scalar FogSequentialForward.fog[65].dispatcher droppedJobsSLA 0
scalar FogSequentialForward.fog[65].dispatcher jobs_class_1 103362
scalar FogSequentialForward.fog[65].dispatcher remoteJobs_class_1 94301
scalar FogSequentialForward.fog[65].dispatcher localJobs_class_1 9061
scalar FogSequentialForward.fog[65].server[0] rho 0.99364203214645
scalar FogSequentialForward.fog[65].server[0] congestionRatio 0
scalar FogSequentialForward.fog[65].server[0] totalJobs 9061
scalar FogSequentialForward.fog[65].server[0] droppedJobsQueue 96
scalar FogSequentialForward.fog[65].server[0] droppedJobsTimout 0
scalar FogSequentialForward.fog[65].server[0] droppedJobsSLA 3279
scalar FogSequentialForward.fog[65].server[0] droppedJobsTotal 3375
scalar FogSequentialForward.fog[66].dispatcher localJobs 8980
scalar FogSequentialForward.fog[66].dispatcher internalJobs 8990
scalar FogSequentialForward.fog[66].dispatcher externalJobs 93746
scalar FogSequentialForward.fog[66].dispatcher remoteJobs 93756
scalar FogSequentialForward.fog[66].dispatcher probeQueries 0
scalar FogSequentialForward.fog[66].dispatcher probeAnswers 0
scalar FogSequentialForward.fog[66].dispatcher droppedJobsSLA 0
scalar FogSequentialForward.fog[66].dispatcher jobs_class_1 102736
scalar FogSequentialForward.fog[66].dispatcher remoteJobs_class_1 93756
scalar FogSequentialForward.fog[66].dispatcher localJobs_class_1 8980
scalar FogSequentialForward.fog[66].server[0] rho 0.99374175071716
scalar FogSequentialForward.fog[66].server[0] congestionRatio 0
scalar FogSequentialForward.fog[66].server[0] totalJobs 8980
scalar FogSequentialForward.fog[66].server[0] droppedJobsQueue 90
scalar FogSequentialForward.fog[66].server[0] droppedJobsTimout 0
scalar FogSequentialForward.fog[66].server[0] droppedJobsSLA 3174
scalar FogSequentialForward.fog[66].server[0] droppedJobsTotal 3264
scalar FogSequentialForward.fog[67].dispatcher localJobs 9055
scalar FogSequentialForward.fog[67].dispatcher internalJobs 9087
scalar FogSequentialForward.fog[67].dispatcher externalJobs 93578
scalar FogSequentialForward.fog[67].dispatcher remoteJobs 93610
scalar FogSequentialForward.fog[67].dispatcher probeQueries 0
scalar FogSequentialForward.fog[67].dispatcher probeAnswers 0
scalar FogSequentialForward.fog[67].dispatcher droppedJobsSLA 0
scalar FogSequentialForward.fog[67].dispatcher jobs_class_1 102665
scalar FogSequentialForward.fog[67].dispatcher remoteJobs_class_1 93610
scalar FogSequentialForward.fog[67].dispatcher localJobs_class_1 9055
scalar FogSequentialForward.fog[67].server[0] rho 0.99358713626862
scalar FogSequentialForward.fog[67].server[0] congestionRatio 0
scalar FogSequentialForward.fog[67].server[0] totalJobs 9055
scalar FogSequentialForward.fog[67].server[0] droppedJobsQueue 77
scalar FogSequentialForward.fog[67].server[0] droppedJobsTimout 0
scalar FogSequentialForward.fog[67].server[0] droppedJobsSLA 3283
scalar FogSequentialForward.fog[67].server[0] droppedJobsTotal 3360
scalar FogSequentialForward.fog[68].dispatcher localJobs 9052
scalar FogSequentialForward.fog[68].dispatcher internalJobs 8974
scalar FogSequentialForward.fog[68].dispatcher externalJobs 93825
scalar FogSequentialForward.fog[68].dispatcher remoteJobs 93747
scalar FogSequentialForward.fog[68].dispatcher probeQueries 0
scalar FogSequentialForward.fog[68].dispatcher probeAnswers 0
scalar FogSequentialForward.fog[68].dispatcher droppedJobsSLA 0
scalar FogSequentialForward.fog[68].dispatcher jobs_class_1 102799
scalar FogSequentialForward.fog[68].dispatcher remoteJobs_class_1 93747
scalar FogSequentialForward.fog[68].dispatcher localJobs_class_1 9052
scalar FogSequentialForward.fog[68].server[0] rho 0.99395263195038
scalar FogSequentialForward.fog[68].server[0] congestionRatio 0
scalar FogSequentialForward.fog[68].server[0] totalJobs 9052
scalar FogSequentialForward.fog[68].server[0] droppedJobsQueue 74
scalar FogSequentialForward.fog[68].server[0] droppedJobsTimout 0
scalar FogSequentialForward.fog[68].server[0] droppedJobsSLA 3285
scalar FogSequentialForward.fog[68].server[0] droppedJobsTotal 3359
scalar FogSequentialForward.fog[69].dispatcher localJobs 9061
scalar FogSequentialForward.fog[69].dispatcher internalJobs 8965
scalar FogSequentialForward.fog[69].dispatcher externalJobs 94218
scalar FogSequentialForward.fog[69].dispatcher remoteJobs 94122
scalar FogSequentialForward.fog[69].dispatcher probeQueries 0
scalar FogSequentialForward.fog[69].dispatcher probeAnswers 0
scalar FogSequentialForward.fog[69].dispatcher droppedJobsSLA 0
scalar FogSequentialForward.fog[69].dispatcher jobs_class_1 103183
scalar FogSequentialForward.fog[69].dispatcher remoteJobs_class_1 94122
scalar FogSequentialForward.fog[69].dispatcher localJobs_class_1 9061
scalar FogSequentialForward.fog[69].server[0] rho 0.99354857206345
scalar FogSequentialForward.fog[69].server[0] congestionRatio 0
scalar FogSequentialForward.fog[69].server[0] totalJobs 9061
scalar FogSequentialForward.fog[69].server[0] droppedJobsQueue 86
scalar FogSequentialForward.fog[69].server[0] droppedJobsTimout 0
scalar FogSequentialForward.fog[69].server[0] droppedJobsSLA 3308
scalar FogSequentialForward.fog[69].server[0] droppedJobsTotal 3394
scalar FogSequentialForward.fog[70].dispatcher localJobs 9056
scalar FogSequentialForward.fog[70].dispatcher internalJobs 9079
scalar FogSequentialForward.fog[70].dispatcher externalJobs 93811
scalar FogSequentialForward.fog[70].dispatcher remoteJobs 93834
scalar FogSequentialForward.fog[70].dispatcher probeQueries 0
scalar FogSequentialForward.fog[70].dispatcher probeAnswers 0
scalar FogSequentialForward.fog[70].dispatcher droppedJobsSLA 0
scalar FogSequentialForward.fog[70].dispatcher jobs_class_1 102890
scalar FogSequentialForward.fog[70].dispatcher remoteJobs_class_1 93834
scalar FogSequentialForward.fog[70].dispatcher localJobs_class_1 9056
scalar FogSequentialForward.fog[70].server[0] rho 0.99387454986572
scalar FogSequentialForward.fog[70].server[0] congestionRatio 0
scalar FogSequentialForward.fog[70].server[0] totalJobs 9056
scalar FogSequentialForward.fog[70].server[0] droppedJobsQueue 73
scalar FogSequentialForward.fog[70].server[0] droppedJobsTimout 0
scalar FogSequentialForward.fog[70].server[0] droppedJobsSLA 3273
[...]
scalar FogSequentialForward.fog[83].dispatcher localJobs 9009
scalar FogSequentialForward.fog[83].dispatcher internalJobs 9145
scalar FogSequentialForward.fog[83].dispatcher externalJobs 93535
scalar FogSequentialForward.fog[83].dispatcher remoteJobs 93671
scalar FogSequentialForward.fog[83].dispatcher probeQueries 0
scalar FogSequentialForward.fog[83].dispatcher probeAnswers 0
scalar FogSequentialForward.fog[83].dispatcher droppedJobsSLA 0
scalar FogSequentialForward.fog[83].dispatcher jobs_class_1 102680
scalar FogSequentialForward.fog[83].dispatcher remoteJobs_class_1 93671
scalar FogSequentialForward.fog[83].dispatcher localJobs_class_1 9009
scalar FogSequentialForward.fog[83].server[0] rho 0.99391067028046
scalar FogSequentialForward.fog[83].server[0] congestionRatio 0
scalar FogSequentialForward.fog[83].server[0] totalJobs 9009
scalar FogSequentialForward.fog[83].server[0] droppedJobsQueue 82
scalar FogSequentialForward.fog[83].server[0] droppedJobsTimout 0
scalar FogSequentialForward.fog[83].server[0] droppedJobsSLA 3217
scalar FogSequentialForward.fog[83].server[0] droppedJobsTotal 3299
scalar FogSequentialForward.fog[84].dispatcher localJobs 8986
scalar FogSequentialForward.fog[84].dispatcher internalJobs 9174
scalar FogSequentialForward.fog[84].dispatcher externalJobs 93758
scalar FogSequentialForward.fog[84].dispatcher remoteJobs 93946
scalar FogSequentialForward.fog[84].dispatcher probeQueries 0
scalar FogSequentialForward.fog[84].dispatcher probeAnswers 0
scalar FogSequentialForward.fog[84].dispatcher droppedJobsSLA 0
scalar FogSequentialForward.fog[84].dispatcher jobs_class_1 102932
scalar FogSequentialForward.fog[84].dispatcher remoteJobs_class_1 93946
scalar FogSequentialForward.fog[84].dispatcher localJobs_class_1 8986
scalar FogSequentialForward.fog[84].server[0] rho 0.99350565671921
scalar FogSequentialForward.fog[84].server[0] congestionRatio 0
scalar FogSequentialForward.fog[84].server[0] totalJobs 8986
scalar FogSequentialForward.fog[84].server[0] droppedJobsQueue 77
scalar FogSequentialForward.fog[84].server[0] droppedJobsTimout 0
scalar FogSequentialForward.fog[84].server[0] droppedJobsSLA 3218
scalar FogSequentialForward.fog[84].server[0] droppedJobsTotal 3295
scalar FogSequentialForward.fog[85].dispatcher localJobs 9191
scalar FogSequentialForward.fog[85].dispatcher internalJobs 9036
scalar FogSequentialForward.fog[85].dispatcher externalJobs 94443
scalar FogSequentialForward.fog[85].dispatcher remoteJobs 94288
scalar FogSequentialForward.fog[85].dispatcher probeQueries 0
scalar FogSequentialForward.fog[85].dispatcher probeAnswers 0
scalar FogSequentialForward.fog[85].dispatcher droppedJobsSLA 0
scalar FogSequentialForward.fog[85].dispatcher jobs_class_1 103479
scalar FogSequentialForward.fog[85].dispatcher remoteJobs_class_1 94288
scalar FogSequentialForward.fog[85].dispatcher localJobs_class_1 9191
scalar FogSequentialForward.fog[85].server[0] rho 0.99417167901993
scalar FogSequentialForward.fog[85].server[0] congestionRatio 0
scalar FogSequentialForward.fog[85].server[0] totalJobs 9191
scalar FogSequentialForward.fog[85].server[0] droppedJobsQueue 90
scalar FogSequentialForward.fog[85].server[0] droppedJobsTimout 0
scalar FogSequentialForward.fog[85].server[0] droppedJobsSLA 3404
scalar FogSequentialForward.fog[85].server[0] droppedJobsTotal 3494
scalar FogSequentialForward.fog[86].dispatcher localJobs 9055
scalar FogSequentialForward.fog[86].dispatcher internalJobs 9041
scalar FogSequentialForward.fog[86].dispatcher externalJobs 93981
scalar FogSequentialForward.fog[86].dispatcher remoteJobs 93967
scalar FogSequentialForward.fog[86].dispatcher probeQueries 0
scalar FogSequentialForward.fog[86].dispatcher probeAnswers 0
scalar FogSequentialForward.fog[86].dispatcher droppedJobsSLA 0
scalar FogSequentialForward.fog[86].dispatcher jobs_class_1 103022
scalar FogSequentialForward.fog[86].dispatcher remoteJobs_class_1 93967
scalar FogSequentialForward.fog[86].dispatcher localJobs_class_1 9055
scalar FogSequentialForward.fog[86].server[0] rho 0.99394512176514
scalar FogSequentialForward.fog[86].server[0] congestionRatio 0
scalar FogSequentialForward.fog[86].server[0] totalJobs 9055
scalar FogSequentialForward.fog[86].server[0] droppedJobsQueue 83
scalar FogSequentialForward.fog[86].server[0] droppedJobsTimout 0
scalar FogSequentialForward.fog[86].server[0] droppedJobsSLA 3246
scalar FogSequentialForward.fog[86].server[0] droppedJobsTotal 3329
scalar FogSequentialForward.fog[87].dispatcher localJobs 9014
scalar FogSequentialForward.fog[87].dispatcher internalJobs 9105
scalar FogSequentialForward.fog[87].dispatcher externalJobs 93816
scalar FogSequentialForward.fog[87].dispatcher remoteJobs 93907
scalar FogSequentialForward.fog[87].dispatcher probeQueries 0
scalar FogSequentialForward.fog[87].dispatcher probeAnswers 0
scalar FogSequentialForward.fog[87].dispatcher droppedJobsSLA 0
scalar FogSequentialForward.fog[87].dispatcher jobs_class_1 102921
scalar FogSequentialForward.fog[87].dispatcher remoteJobs_class_1 93907
scalar FogSequentialForward.fog[87].dispatcher localJobs_class_1 9014
scalar FogSequentialForward.fog[87].server[0] rho 0.99383103847504
scalar FogSequentialForward.fog[87].server[0] congestionRatio 0
scalar FogSequentialForward.fog[87].server[0] totalJobs 9014
scalar FogSequentialForward.fog[87].server[0] droppedJobsQueue 74
scalar FogSequentialForward.fog[87].server[0] droppedJobsTimout 0
scalar FogSequentialForward.fog[87].server[0] droppedJobsSLA 3230
scalar FogSequentialForward.fog[87].server[0] droppedJobsTotal 3304
scalar FogSequentialForward.fog[88].dispatcher localJobs 9089
scalar FogSequentialForward.fog[88].dispatcher internalJobs 9076
scalar FogSequentialForward.fog[88].dispatcher externalJobs 93604
scalar FogSequentialForward.fog[88].dispatcher remoteJobs 93591
scalar FogSequentialForward.fog[88].dispatcher probeQueries 0
scalar FogSequentialForward.fog[88].dispatcher probeAnswers 0
scalar FogSequentialForward.fog[88].dispatcher droppedJobsSLA 0
scalar FogSequentialForward.fog[88].dispatcher jobs_class_1 102680
scalar FogSequentialForward.fog[88].dispatcher remoteJobs_class_1 93591
scalar FogSequentialForward.fog[88].dispatcher localJobs_class_1 9089
scalar FogSequentialForward.fog[88].server[0] rho 0.99427795410156
scalar FogSequentialForward.fog[88].server[0] congestionRatio 0
scalar FogSequentialForward.fog[88].server[0] totalJobs 9089
scalar FogSequentialForward.fog[88].server[0] droppedJobsQueue 82
scalar FogSequentialForward.fog[88].server[0] droppedJobsTimout 0
scalar FogSequentialForward.fog[88].server[0] droppedJobsSLA 3321
scalar FogSequentialForward.fog[88].server[0] droppedJobsTotal 3403
scalar FogSequentialForward.fog[89].dispatcher localJobs 9084
scalar FogSequentialForward.fog[89].dispatcher internalJobs 8974
scalar FogSequentialForward.fog[89].dispatcher externalJobs 94209
scalar FogSequentialForward.fog[89].dispatcher remoteJobs 94099
scalar FogSequentialForward.fog[89].dispatcher probeQueries 0
scalar FogSequentialForward.fog[89].dispatcher probeAnswers 0
scalar FogSequentialForward.fog[89].dispatcher droppedJobsSLA 0
scalar FogSequentialForward.fog[89].dispatcher jobs_class_1 103183
scalar FogSequentialForward.fog[89].dispatcher remoteJobs_class_1 94099
scalar FogSequentialForward.fog[89].dispatcher localJobs_class_1 9084
scalar FogSequentialForward.fog[89].server[0] rho 0.99389570951462
scalar FogSequentialForward.fog[89].server[0] congestionRatio 0
scalar FogSequentialForward.fog[89].server[0] totalJobs 9084
scalar FogSequentialForward.fog[89].server[0] droppedJobsQueue 85
scalar FogSequentialForward.fog[89].server[0] droppedJobsTimout 0
scalar FogSequentialForward.fog[89].server[0] droppedJobsSLA 3316
scalar FogSequentialForward.fog[89].server[0] droppedJobsTotal 3401
scalar FogSequentialForward.fog[90].dispatcher localJobs 9078
scalar FogSequentialForward.fog[90].dispatcher internalJobs 8893
scalar FogSequentialForward.fog[90].dispatcher externalJobs 94172
scalar FogSequentialForward.fog[90].dispatcher remoteJobs 93987
scalar FogSequentialForward.fog[90].dispatcher probeQueries 0
scalar FogSequentialForward.fog[90].dispatcher probeAnswers 0
scalar FogSequentialForward.fog[90].dispatcher droppedJobsSLA 0
scalar FogSequentialForward.fog[90].dispatcher jobs_class_1 103065
scalar FogSequentialForward.fog[90].dispatcher remoteJobs_class_1 93987
scalar FogSequentialForward.fog[90].dispatcher localJobs_class_1 9078
scalar FogSequentialForward.fog[90].server[0] rho 0.99398267269135
scalar FogSequentialForward.fog[90].server[0] congestionRatio 0
scalar FogSequentialForward.fog[90].server[0] totalJobs 9078
scalar FogSequentialForward.fog[90].server[0] droppedJobsQueue 84
scalar FogSequentialForward.fog[90].server[0] droppedJobsTimout 0
scalar FogSequentialForward.fog[90].server[0] droppedJobsSLA 3319
scalar FogSequentialForward.fog[90].server[0] droppedJobsTotal 3403
scalar FogSequentialForward.fog[91].dispatcher localJobs 9069
scalar FogSequentialForward.fog[91].dispatcher internalJobs 9106
scalar FogSequentialForward.fog[91].dispatcher externalJobs 93678
scalar FogSequentialForward.fog[91].dispatcher remoteJobs 93715
scalar FogSequentialForward.fog[91].dispatcher probeQueries 0
scalar FogSequentialForward.fog[91].dispatcher probeAnswers 0
scalar FogSequentialForward.fog[91].dispatcher droppedJobsSLA 0
scalar FogSequentialForward.fog[91].dispatcher jobs_class_1 102784
scalar FogSequentialForward.fog[91].dispatcher remoteJobs_class_1 93715
scalar FogSequentialForward.fog[91].dispatcher localJobs_class_1 9069
scalar FogSequentialForward.fog[91].server[0] rho 0.99398750066757
scalar FogSequentialForward.fog[91].server[0] congestionRatio 0
scalar FogSequentialForward.fog[91].server[0] totalJobs 9069
scalar FogSequentialForward.fog[91].server[0] droppedJobsQueue 84
scalar FogSequentialForward.fog[91].server[0] droppedJobsTimout 0
scalar FogSequentialForward.fog[91].server[0] droppedJobsSLA 3302
scalar FogSequentialForward.fog[91].server[0] droppedJobsTotal 3386
scalar FogSequentialForward.fog[92].dispatcher localJobs 8887
scalar FogSequentialForward.fog[92].dispatcher internalJobs 8939
scalar FogSequentialForward.fog[92].dispatcher externalJobs 93927
scalar FogSequentialForward.fog[92].dispatcher remoteJobs 93979
scalar FogSequentialForward.fog[92].dispatcher probeQueries 0
scalar FogSequentialForward.fog[92].dispatcher probeAnswers 0
scalar FogSequentialForward.fog[92].dispatcher droppedJobsSLA 0
scalar FogSequentialForward.fog[92].dispatcher jobs_class_1 102866
scalar FogSequentialForward.fog[92].dispatcher remoteJobs_class_1 93979
scalar FogSequentialForward.fog[92].dispatcher localJobs_class_1 8887
scalar FogSequentialForward.fog[92].server[0] rho 0.9938360452652
scalar FogSequentialForward.fog[92].server[0] congestionRatio 0
scalar FogSequentialForward.fog[92].server[0] totalJobs 8887
scalar FogSequentialForward.fog[92].server[0] droppedJobsQueue 73
scalar FogSequentialForward.fog[92].server[0] droppedJobsTimout 0
scalar FogSequentialForward.fog[92].server[0] droppedJobsSLA 3098
scalar FogSequentialForward.fog[92].server[0] droppedJobsTotal 3171
scalar FogSequentialForward.fog[93].dispatcher localJobs 8994
scalar FogSequentialForward.fog[93].dispatcher internalJobs 9060
scalar FogSequentialForward.fog[93].dispatcher externalJobs 94020
scalar FogSequentialForward.fog[93].dispatcher remoteJobs 94086
scalar FogSequentialForward.fog[93].dispatcher probeQueries 0
scalar FogSequentialForward.fog[93].dispatcher probeAnswers 0
scalar FogSequentialForward.fog[93].dispatcher droppedJobsSLA 0
scalar FogSequentialForward.fog[93].dispatcher jobs_class_1 103080
scalar FogSequentialForward.fog[93].dispatcher remoteJobs_class_1 94086
scalar FogSequentialForward.fog[93].dispatcher localJobs_class_1 8994
scalar FogSequentialForward.fog[93].server[0] rho 0.99388438463211
scalar FogSequentialForward.fog[93].server[0] congestionRatio 0
scalar FogSequentialForward.fog[93].server[0] totalJobs 8994
scalar FogSequentialForward.fog[93].server[0] droppedJobsQueue 77
scalar FogSequentialForward.fog[93].server[0] droppedJobsTimout 0
scalar FogSequentialForward.fog[93].server[0] droppedJobsSLA 3210
scalar FogSequentialForward.fog[93].server[0] droppedJobsTotal 3287
scalar FogSequentialForward.fog[94].dispatcher localJobs 9045
scalar FogSequentialForward.fog[94].dispatcher internalJobs 8950
scalar FogSequentialForward.fog[94].dispatcher externalJobs 93900
scalar FogSequentialForward.fog[94].dispatcher remoteJobs 93805
scalar FogSequentialForward.fog[94].dispatcher probeQueries 0
scalar FogSequentialForward.fog[94].dispatcher probeAnswers 0
scalar FogSequentialForward.fog[94].dispatcher droppedJobsSLA 0
scalar FogSequentialForward.fog[94].dispatcher jobs_class_1 102850
scalar FogSequentialForward.fog[94].dispatcher remoteJobs_class_1 93805
scalar FogSequentialForward.fog[94].dispatcher localJobs_class_1 9045
scalar FogSequentialForward.fog[94].server[0] rho 0.99434775114059
scalar FogSequentialForward.fog[94].server[0] congestionRatio 0
scalar FogSequentialForward.fog[94].server[0] totalJobs 9045
scalar FogSequentialForward.fog[94].server[0] droppedJobsQueue 72
scalar FogSequentialForward.fog[94].server[0] droppedJobsTimout 0
scalar FogSequentialForward.fog[94].server[0] droppedJobsSLA 3286
scalar FogSequentialForward.fog[94].server[0] droppedJobsTotal 3358
scalar FogSequentialForward.fog[95].dispatcher localJobs 8977
scalar FogSequentialForward.fog[95].dispatcher internalJobs 9059
scalar FogSequentialForward.fog[95].dispatcher externalJobs 93709
scalar FogSequentialForward.fog[95].dispatcher remoteJobs 93791
scalar FogSequentialForward.fog[95].dispatcher probeQueries 0
scalar FogSequentialForward.fog[95].dispatcher probeAnswers 0
scalar FogSequentialForward.fog[95].dispatcher droppedJobsSLA 0
scalar FogSequentialForward.fog[95].dispatcher jobs_class_1 102768
scalar FogSequentialForward.fog[95].dispatcher remoteJobs_class_1 93791
scalar FogSequentialForward.fog[95].dispatcher localJobs_class_1 8977
scalar FogSequentialForward.fog[95].server[0] rho 0.99388247728348
scalar FogSequentialForward.fog[95].server[0] congestionRatio 0
scalar FogSequentialForward.fog[95].server[0] totalJobs 8977
scalar FogSequentialForward.fog[95].server[0] droppedJobsQueue 69
scalar FogSequentialForward.fog[95].server[0] droppedJobsTimout 0
scalar FogSequentialForward.fog[95].server[0] droppedJobsSLA 3216
scalar FogSequentialForward.fog[95].server[0] droppedJobsTotal 3285
scalar FogSequentialForward.fog[96].dispatcher localJobs 9054
scalar FogSequentialForward.fog[96].dispatcher internalJobs 8916
scalar FogSequentialForward.fog[96].dispatcher externalJobs 93814
scalar FogSequentialForward.fog[96].dispatcher remoteJobs 93676
scalar FogSequentialForward.fog[96].dispatcher probeQueries 0
scalar FogSequentialForward.fog[96].dispatcher probeAnswers 0
scalar FogSequentialForward.fog[96].dispatcher droppedJobsSLA 0
scalar FogSequentialForward.fog[96].dispatcher jobs_class_1 102730
scalar FogSequentialForward.fog[96].dispatcher remoteJobs_class_1 93676
scalar FogSequentialForward.fog[96].dispatcher localJobs_class_1 9054
scalar FogSequentialForward.fog[96].server[0] rho 0.99468338489532
scalar FogSequentialForward.fog[96].server[0] congestionRatio 0
scalar FogSequentialForward.fog[96].server[0] totalJobs 9054
scalar FogSequentialForward.fog[96].server[0] droppedJobsQueue 77
scalar FogSequentialForward.fog[96].server[0] droppedJobsTimout 0
scalar FogSequentialForward.fog[96].server[0] droppedJobsSLA 3274
scalar FogSequentialForward.fog[96].server[0] droppedJobsTotal 3351
scalar FogSequentialForward.fog[97].dispatcher localJobs 8940
scalar FogSequentialForward.fog[97].dispatcher internalJobs 8977
scalar FogSequentialForward.fog[97].dispatcher externalJobs 93455
scalar FogSequentialForward.fog[97].dispatcher remoteJobs 93492
scalar FogSequentialForward.fog[97].dispatcher probeQueries 0
scalar FogSequentialForward.fog[97].dispatcher probeAnswers 0
scalar FogSequentialForward.fog[97].dispatcher droppedJobsSLA 0
scalar FogSequentialForward.fog[97].dispatcher jobs_class_1 102432
scalar FogSequentialForward.fog[97].dispatcher remoteJobs_class_1 93492
scalar FogSequentialForward.fog[97].dispatcher localJobs_class_1 8940
scalar FogSequentialForward.fog[97].server[0] rho 0.99406880140305
scalar FogSequentialForward.fog[97].server[0] congestionRatio 0
scalar FogSequentialForward.fog[97].server[0] totalJobs 8940
scalar FogSequentialForward.fog[97].server[0] droppedJobsQueue 77
scalar FogSequentialForward.fog[97].server[0] droppedJobsTimout 0
scalar FogSequentialForward.fog[97].server[0] droppedJobsSLA 3141
scalar FogSequentialForward.fog[97].server[0] droppedJobsTotal 3218
scalar FogSequentialForward.fog[98].dispatcher localJobs 9093
scalar FogSequentialForward.fog[98].dispatcher internalJobs 8832
scalar FogSequentialForward.fog[98].dispatcher externalJobs 93887
scalar FogSequentialForward.fog[98].dispatcher remoteJobs 93626
scalar FogSequentialForward.fog[98].dispatcher probeQueries 0
scalar FogSequentialForward.fog[98].dispatcher probeAnswers 0
scalar FogSequentialForward.fog[98].dispatcher droppedJobsSLA 0
scalar FogSequentialForward.fog[98].dispatcher jobs_class_1 102719
scalar FogSequentialForward.fog[98].dispatcher remoteJobs_class_1 93626
scalar FogSequentialForward.fog[98].dispatcher localJobs_class_1 9093
scalar FogSequentialForward.fog[98].server[0] rho 0.99376165866852
scalar FogSequentialForward.fog[98].server[0] congestionRatio 0
scalar FogSequentialForward.fog[98].server[0] totalJobs 9093
scalar FogSequentialForward.fog[98].server[0] droppedJobsQueue 81
scalar FogSequentialForward.fog[98].server[0] droppedJobsTimout 0
scalar FogSequentialForward.fog[98].server[0] droppedJobsSLA 3299
scalar FogSequentialForward.fog[98].server[0] droppedJobsTotal 3380
scalar FogSequentialForward.fog[99].dispatcher localJobs 8960
scalar FogSequentialForward.fog[99].dispatcher internalJobs 8979
scalar FogSequentialForward.fog[99].dispatcher externalJobs 93337
scalar FogSequentialForward.fog[99].dispatcher remoteJobs 93356
scalar FogSequentialForward.fog[99].dispatcher probeQueries 0
scalar FogSequentialForward.fog[99].dispatcher probeAnswers 0
scalar FogSequentialForward.fog[99].dispatcher droppedJobsSLA 0
scalar FogSequentialForward.fog[99].dispatcher jobs_class_1 102316
scalar FogSequentialForward.fog[99].dispatcher remoteJobs_class_1 93356
scalar FogSequentialForward.fog[99].dispatcher localJobs_class_1 8960
scalar FogSequentialForward.fog[99].server[0] rho 0.99344480037689
scalar FogSequentialForward.fog[99].server[0] congestionRatio 0
scalar FogSequentialForward.fog[99].server[0] totalJobs 8960
scalar FogSequentialForward.fog[99].server[0] droppedJobsQueue 73
scalar FogSequentialForward.fog[99].server[0] droppedJobsTimout 0
scalar FogSequentialForward.fog[99].server[0] droppedJobsSLA 3177
scalar FogSequentialForward.fog[99].server[0] droppedJobsTotal 3250
scalar FogSequentialForward.sink avg_responseTime_1 8.7394136131146
scalar FogSequentialForward.sink p90_responseTime_1 1.545696814754
scalar FogSequentialForward.sink med_responseTime_1 1.545696814754
scalar FogSequentialForward.sink avg_delayTime_1 0
scalar FogSequentialForward.sink p90_delayTime_1 0
scalar FogSequentialForward.sink med_delayTime_1 0
scalar FogSequentialForward.sink avg_queuingTime_1 6.9021270867221
scalar FogSequentialForward.sink p90_queuingTime_1 0
scalar FogSequentialForward.sink med_queuingTime_1 0
scalar FogSequentialForward.sink avg_serviceTime_1 1.6705660875183
scalar FogSequentialForward.sink p90_serviceTime_1 1.499728256875
scalar FogSequentialForward.sink med_serviceTime_1 1.499728256875
scalar FogSequentialForward.sink avg_balancerTime_1 0.16672043887399
scalar FogSequentialForward.sink p90_balancerTime_1 0
scalar FogSequentialForward.sink med_balancerTime_1 0
scalar FogSequentialForward.sink avg_balancerCount_1 10.983259812835
scalar FogSequentialForward.sink p90_balancerCount_1 1
scalar FogSequentialForward.sink med_balancerCount_1 1

