version 2
run Fog-mul_10-rho_08-thr_9-4-20190714-05:01:35-100160
attr configname Fog-mul_10-rho_08-thr_9
attr datetime 20190714-05:01:35
attr experiment Fog-mul_10-rho_08-thr_9
attr inifile FogSequentialForward.ini
attr iterationvars ""
attr iterationvarsf ""
attr measurement ""
attr network FogSequentialForward
attr processid 100160
attr repetition 4
attr replication #4
attr resultdir results
attr runnumber 4
attr seedset 4
param FogSequentialForward.proctimeMul 1.0
param FogSequentialForward.rho 0.8
param FogSequentialForward.fog[*].dispatcher.thr 9
param FogSequentialForward.nSources 100
param FogSequentialForward.rho 0.9
param FogSequentialForward.proctimeMul 1.0
param FogSequentialForward.source[*].appId 1
param FogSequentialForward.source[*].realTime true
param FogSequentialForward.source[*].multiHop true
param FogSequentialForward.fog[*].nServers 1
param FogSequentialForward.fog[*].dispatcher.fanOut 1
param FogSequentialForward.fog[*].server[*].timeSlice -1s
param FogSequentialForward.fog[*].server[*].timeout -1s
param FogSequentialForward.fog[*].server[*].capacity 20
param FogSequentialForward.fog[*].server[*].fifo true
param FogSequentialForward.fog[*].server[*].maxServiceTime -1s
param FogSequentialForward.fog[*].dispatcher.thr 1

scalar FogSequentialForward.fog[0].dispatcher localJobs 14030
scalar FogSequentialForward.fog[0].dispatcher internalJobs 14549
scalar FogSequentialForward.fog[0].dispatcher externalJobs 3647520
scalar FogSequentialForward.fog[0].dispatcher remoteJobs 3647732
scalar FogSequentialForward.fog[0].dispatcher probeQueries 0
scalar FogSequentialForward.fog[0].dispatcher probeAnswers 0
scalar FogSequentialForward.fog[0].dispatcher droppedJobsSLA 307
scalar FogSequentialForward.fog[0].dispatcher jobs_class_1 3662069
scalar FogSequentialForward.fog[0].dispatcher remoteJobs_class_1 3647732
scalar FogSequentialForward.fog[0].dispatcher localJobs_class_1 14030
scalar FogSequentialForward.fog[0].dispatcher droppedJobsSLA_class_1 307
scalar FogSequentialForward.fog[0].server[0] rho 1
scalar FogSequentialForward.fog[0].server[0] congestionRatio 0
scalar FogSequentialForward.fog[0].server[0] totalJobs 14030
scalar FogSequentialForward.fog[0].server[0] droppedJobsQueue 882
scalar FogSequentialForward.fog[0].server[0] droppedJobsTimout 0
scalar FogSequentialForward.fog[0].server[0] droppedJobsSLA 8358
scalar FogSequentialForward.fog[0].server[0] droppedJobsTotal 9240
scalar FogSequentialForward.fog[1].dispatcher localJobs 14011
scalar FogSequentialForward.fog[1].dispatcher internalJobs 14500
scalar FogSequentialForward.fog[1].dispatcher externalJobs 3649493
scalar FogSequentialForward.fog[1].dispatcher remoteJobs 3649656
scalar FogSequentialForward.fog[1].dispatcher probeQueries 0
scalar FogSequentialForward.fog[1].dispatcher probeAnswers 0
scalar FogSequentialForward.fog[1].dispatcher droppedJobsSLA 326
scalar FogSequentialForward.fog[1].dispatcher jobs_class_1 3663993
scalar FogSequentialForward.fog[1].dispatcher remoteJobs_class_1 3649656
scalar FogSequentialForward.fog[1].dispatcher localJobs_class_1 14011
scalar FogSequentialForward.fog[1].dispatcher droppedJobsSLA_class_1 326
scalar FogSequentialForward.fog[1].server[0] rho 1
scalar FogSequentialForward.fog[1].server[0] congestionRatio 0
scalar FogSequentialForward.fog[1].server[0] totalJobs 14011
scalar FogSequentialForward.fog[1].server[0] droppedJobsQueue 881
scalar FogSequentialForward.fog[1].server[0] droppedJobsTimout 0
scalar FogSequentialForward.fog[1].server[0] droppedJobsSLA 8340
scalar FogSequentialForward.fog[1].server[0] droppedJobsTotal 9221
scalar FogSequentialForward.fog[2].dispatcher localJobs 14058
scalar FogSequentialForward.fog[2].dispatcher internalJobs 14339
scalar FogSequentialForward.fog[2].dispatcher externalJobs 3645639
scalar FogSequentialForward.fog[2].dispatcher remoteJobs 3645609
scalar FogSequentialForward.fog[2].dispatcher probeQueries 0
scalar FogSequentialForward.fog[2].dispatcher probeAnswers 0
scalar FogSequentialForward.fog[2].dispatcher droppedJobsSLA 311
scalar FogSequentialForward.fog[2].dispatcher jobs_class_1 3659978
scalar FogSequentialForward.fog[2].dispatcher remoteJobs_class_1 3645609
scalar FogSequentialForward.fog[2].dispatcher localJobs_class_1 14058
scalar FogSequentialForward.fog[2].dispatcher droppedJobsSLA_class_1 311
scalar FogSequentialForward.fog[2].server[0] rho 1
scalar FogSequentialForward.fog[2].server[0] congestionRatio 0
scalar FogSequentialForward.fog[2].server[0] totalJobs 14058
scalar FogSequentialForward.fog[2].server[0] droppedJobsQueue 879
scalar FogSequentialForward.fog[2].server[0] droppedJobsTimout 0
scalar FogSequentialForward.fog[2].server[0] droppedJobsSLA 8389
scalar FogSequentialForward.fog[2].server[0] droppedJobsTotal 9268
scalar FogSequentialForward.fog[3].dispatcher localJobs 14152
scalar FogSequentialForward.fog[3].dispatcher internalJobs 14331
scalar FogSequentialForward.fog[3].dispatcher externalJobs 3646357
scalar FogSequentialForward.fog[3].dispatcher remoteJobs 3646233
scalar FogSequentialForward.fog[3].dispatcher probeQueries 0
scalar FogSequentialForward.fog[3].dispatcher probeAnswers 0
scalar FogSequentialForward.fog[3].dispatcher droppedJobsSLA 303
scalar FogSequentialForward.fog[3].dispatcher jobs_class_1 3660688
scalar FogSequentialForward.fog[3].dispatcher remoteJobs_class_1 3646233
scalar FogSequentialForward.fog[3].dispatcher localJobs_class_1 14152
scalar FogSequentialForward.fog[3].dispatcher droppedJobsSLA_class_1 303
scalar FogSequentialForward.fog[3].server[0] rho 0.99998015165329
scalar FogSequentialForward.fog[3].server[0] congestionRatio 0
scalar FogSequentialForward.fog[3].server[0] totalJobs 14152
scalar FogSequentialForward.fog[3].server[0] droppedJobsQueue 888
scalar FogSequentialForward.fog[3].server[0] droppedJobsTimout 0
scalar FogSequentialForward.fog[3].server[0] droppedJobsSLA 8417
scalar FogSequentialForward.fog[3].server[0] droppedJobsTotal 9305
scalar FogSequentialForward.fog[4].dispatcher localJobs 14071
scalar FogSequentialForward.fog[4].dispatcher internalJobs 14313
scalar FogSequentialForward.fog[4].dispatcher externalJobs 3647002
scalar FogSequentialForward.fog[4].dispatcher remoteJobs 3646954
scalar FogSequentialForward.fog[4].dispatcher probeQueries 0
scalar FogSequentialForward.fog[4].dispatcher probeAnswers 0
scalar FogSequentialForward.fog[4].dispatcher droppedJobsSLA 290
scalar FogSequentialForward.fog[4].dispatcher jobs_class_1 3661315
scalar FogSequentialForward.fog[4].dispatcher remoteJobs_class_1 3646954
scalar FogSequentialForward.fog[4].dispatcher localJobs_class_1 14071
scalar FogSequentialForward.fog[4].dispatcher droppedJobsSLA_class_1 290
scalar FogSequentialForward.fog[4].server[0] rho 1
scalar FogSequentialForward.fog[4].server[0] congestionRatio 0
scalar FogSequentialForward.fog[4].server[0] totalJobs 14071
scalar FogSequentialForward.fog[4].server[0] droppedJobsQueue 880
scalar FogSequentialForward.fog[4].server[0] droppedJobsTimout 0
scalar FogSequentialForward.fog[4].server[0] droppedJobsSLA 8410
scalar FogSequentialForward.fog[4].server[0] droppedJobsTotal 9290
scalar FogSequentialForward.fog[5].dispatcher localJobs 14083
scalar FogSequentialForward.fog[5].dispatcher internalJobs 14262
scalar FogSequentialForward.fog[5].dispatcher externalJobs 3643671
scalar FogSequentialForward.fog[5].dispatcher remoteJobs 3643535
scalar FogSequentialForward.fog[5].dispatcher probeQueries 0
scalar FogSequentialForward.fog[5].dispatcher probeAnswers 0
scalar FogSequentialForward.fog[5].dispatcher droppedJobsSLA 315
scalar FogSequentialForward.fog[5].dispatcher jobs_class_1 3657933
scalar FogSequentialForward.fog[5].dispatcher remoteJobs_class_1 3643535
scalar FogSequentialForward.fog[5].dispatcher localJobs_class_1 14083
scalar FogSequentialForward.fog[5].dispatcher droppedJobsSLA_class_1 315
scalar FogSequentialForward.fog[5].server[0] rho 0.99999272823334
scalar FogSequentialForward.fog[5].server[0] congestionRatio 0
scalar FogSequentialForward.fog[5].server[0] totalJobs 14083
scalar FogSequentialForward.fog[5].server[0] droppedJobsQueue 887
scalar FogSequentialForward.fog[5].server[0] droppedJobsTimout 0
scalar FogSequentialForward.fog[5].server[0] droppedJobsSLA 8384
scalar FogSequentialForward.fog[5].server[0] droppedJobsTotal 9271
scalar FogSequentialForward.fog[6].dispatcher localJobs 14082
scalar FogSequentialForward.fog[6].dispatcher internalJobs 14357
scalar FogSequentialForward.fog[6].dispatcher externalJobs 3649014
scalar FogSequentialForward.fog[6].dispatcher remoteJobs 3648983
scalar FogSequentialForward.fog[6].dispatcher probeQueries 0
scalar FogSequentialForward.fog[6].dispatcher probeAnswers 0
scalar FogSequentialForward.fog[6].dispatcher droppedJobsSLA 306
scalar FogSequentialForward.fog[6].dispatcher jobs_class_1 3663371
scalar FogSequentialForward.fog[6].dispatcher remoteJobs_class_1 3648983
scalar FogSequentialForward.fog[6].dispatcher localJobs_class_1 14082
scalar FogSequentialForward.fog[6].dispatcher droppedJobsSLA_class_1 306
scalar FogSequentialForward.fog[6].server[0] rho 0.99999988079071
scalar FogSequentialForward.fog[6].server[0] congestionRatio 0
scalar FogSequentialForward.fog[6].server[0] totalJobs 14082
scalar FogSequentialForward.fog[6].server[0] droppedJobsQueue 883
scalar FogSequentialForward.fog[6].server[0] droppedJobsTimout 0
scalar FogSequentialForward.fog[6].server[0] droppedJobsSLA 8381
scalar FogSequentialForward.fog[6].server[0] droppedJobsTotal 9264
scalar FogSequentialForward.fog[7].dispatcher localJobs 14103
scalar FogSequentialForward.fog[7].dispatcher internalJobs 14345
scalar FogSequentialForward.fog[7].dispatcher externalJobs 3648597
scalar FogSequentialForward.fog[7].dispatcher remoteJobs 3648539
scalar FogSequentialForward.fog[7].dispatcher probeQueries 0
scalar FogSequentialForward.fog[7].dispatcher probeAnswers 0
scalar FogSequentialForward.fog[7].dispatcher droppedJobsSLA 300
scalar FogSequentialForward.fog[7].dispatcher jobs_class_1 3662942
scalar FogSequentialForward.fog[7].dispatcher remoteJobs_class_1 3648539
scalar FogSequentialForward.fog[7].dispatcher localJobs_class_1 14103
scalar FogSequentialForward.fog[7].dispatcher droppedJobsSLA_class_1 300
scalar FogSequentialForward.fog[7].server[0] rho 1
scalar FogSequentialForward.fog[7].server[0] congestionRatio 0
scalar FogSequentialForward.fog[7].server[0] totalJobs 14103
scalar FogSequentialForward.fog[7].server[0] droppedJobsQueue 883
scalar FogSequentialForward.fog[7].server[0] droppedJobsTimout 0
scalar FogSequentialForward.fog[7].server[0] droppedJobsSLA 8376
scalar FogSequentialForward.fog[7].server[0] droppedJobsTotal 9259
scalar FogSequentialForward.fog[8].dispatcher localJobs 14144
scalar FogSequentialForward.fog[8].dispatcher internalJobs 14652
scalar FogSequentialForward.fog[8].dispatcher externalJobs 3649565
scalar FogSequentialForward.fog[8].dispatcher remoteJobs 3649755
scalar FogSequentialForward.fog[8].dispatcher probeQueries 0
scalar FogSequentialForward.fog[8].dispatcher probeAnswers 0
scalar FogSequentialForward.fog[8].dispatcher droppedJobsSLA 318
scalar FogSequentialForward.fog[8].dispatcher jobs_class_1 3664217
scalar FogSequentialForward.fog[8].dispatcher remoteJobs_class_1 3649755
scalar FogSequentialForward.fog[8].dispatcher localJobs_class_1 14144
scalar FogSequentialForward.fog[8].dispatcher droppedJobsSLA_class_1 318
scalar FogSequentialForward.fog[8].server[0] rho 0.99986630678177
scalar FogSequentialForward.fog[8].server[0] congestionRatio 0
scalar FogSequentialForward.fog[8].server[0] totalJobs 14144
scalar FogSequentialForward.fog[8].server[0] droppedJobsQueue 882
scalar FogSequentialForward.fog[8].server[0] droppedJobsTimout 0
scalar FogSequentialForward.fog[8].server[0] droppedJobsSLA 8362
scalar FogSequentialForward.fog[8].server[0] droppedJobsTotal 9244
scalar FogSequentialForward.fog[9].dispatcher localJobs 14086
scalar FogSequentialForward.fog[9].dispatcher internalJobs 14358
scalar FogSequentialForward.fog[9].dispatcher externalJobs 3646656
scalar FogSequentialForward.fog[9].dispatcher remoteJobs 3646606
scalar FogSequentialForward.fog[9].dispatcher probeQueries 0
scalar FogSequentialForward.fog[9].dispatcher probeAnswers 0
scalar FogSequentialForward.fog[9].dispatcher droppedJobsSLA 322
scalar FogSequentialForward.fog[9].dispatcher jobs_class_1 3661014
scalar FogSequentialForward.fog[9].dispatcher remoteJobs_class_1 3646606
scalar FogSequentialForward.fog[9].dispatcher localJobs_class_1 14086
scalar FogSequentialForward.fog[9].dispatcher droppedJobsSLA_class_1 322
scalar FogSequentialForward.fog[9].server[0] rho 1
scalar FogSequentialForward.fog[9].server[0] congestionRatio 0
scalar FogSequentialForward.fog[9].server[0] totalJobs 14086
scalar FogSequentialForward.fog[9].server[0] droppedJobsQueue 886
scalar FogSequentialForward.fog[9].server[0] droppedJobsTimout 0
scalar FogSequentialForward.fog[9].server[0] droppedJobsSLA 8360
scalar FogSequentialForward.fog[9].server[0] droppedJobsTotal 9246
scalar FogSequentialForward.fog[10].dispatcher localJobs 14102
scalar FogSequentialForward.fog[10].dispatcher internalJobs 14354
scalar FogSequentialForward.fog[10].dispatcher externalJobs 3648083
scalar FogSequentialForward.fog[10].dispatcher remoteJobs 3648002
scalar FogSequentialForward.fog[10].dispatcher probeQueries 0
scalar FogSequentialForward.fog[10].dispatcher probeAnswers 0
scalar FogSequentialForward.fog[10].dispatcher droppedJobsSLA 333
scalar FogSequentialForward.fog[10].dispatcher jobs_class_1 3662437
scalar FogSequentialForward.fog[10].dispatcher remoteJobs_class_1 3648002
scalar FogSequentialForward.fog[10].dispatcher localJobs_class_1 14102
scalar FogSequentialForward.fog[10].dispatcher droppedJobsSLA_class_1 333
scalar FogSequentialForward.fog[10].server[0] rho 1
scalar FogSequentialForward.fog[10].server[0] congestionRatio 0
scalar FogSequentialForward.fog[10].server[0] totalJobs 14102
scalar FogSequentialForward.fog[10].server[0] droppedJobsQueue 886
scalar FogSequentialForward.fog[10].server[0] droppedJobsTimout 0
scalar FogSequentialForward.fog[10].server[0] droppedJobsSLA 8417
scalar FogSequentialForward.fog[10].server[0] droppedJobsTotal 9303
scalar FogSequentialForward.fog[11].dispatcher localJobs 14087
scalar FogSequentialForward.fog[11].dispatcher internalJobs 14465
scalar FogSequentialForward.fog[11].dispatcher externalJobs 3647499
scalar FogSequentialForward.fog[11].dispatcher remoteJobs 3647569
scalar FogSequentialForward.fog[11].dispatcher probeQueries 0
scalar FogSequentialForward.fog[11].dispatcher probeAnswers 0
scalar FogSequentialForward.fog[11].dispatcher droppedJobsSLA 308
scalar FogSequentialForward.fog[11].dispatcher jobs_class_1 3661964
scalar FogSequentialForward.fog[11].dispatcher remoteJobs_class_1 3647569
scalar FogSequentialForward.fog[11].dispatcher localJobs_class_1 14087
scalar FogSequentialForward.fog[11].dispatcher droppedJobsSLA_class_1 308
scalar FogSequentialForward.fog[11].server[0] rho 1
scalar FogSequentialForward.fog[11].server[0] congestionRatio 0
scalar FogSequentialForward.fog[11].server[0] totalJobs 14087
scalar FogSequentialForward.fog[11].server[0] droppedJobsQueue 883
scalar FogSequentialForward.fog[11].server[0] droppedJobsTimout 0
scalar FogSequentialForward.fog[11].server[0] droppedJobsSLA 8368
scalar FogSequentialForward.fog[11].server[0] droppedJobsTotal 9251
scalar FogSequentialForward.fog[12].dispatcher localJobs 14130
scalar FogSequentialForward.fog[12].dispatcher internalJobs 14433
scalar FogSequentialForward.fog[12].dispatcher externalJobs 3649404
scalar FogSequentialForward.fog[12].dispatcher remoteJobs 3649388
scalar FogSequentialForward.fog[12].dispatcher probeQueries 0
scalar FogSequentialForward.fog[12].dispatcher probeAnswers 0
scalar FogSequentialForward.fog[12].dispatcher droppedJobsSLA 319
scalar FogSequentialForward.fog[12].dispatcher jobs_class_1 3663837
scalar FogSequentialForward.fog[12].dispatcher remoteJobs_class_1 3649388
scalar FogSequentialForward.fog[12].dispatcher localJobs_class_1 14130
scalar FogSequentialForward.fog[12].dispatcher droppedJobsSLA_class_1 319
scalar FogSequentialForward.fog[12].server[0] rho 0.99993652105331
scalar FogSequentialForward.fog[12].server[0] congestionRatio 0
scalar FogSequentialForward.fog[12].server[0] totalJobs 14130
scalar FogSequentialForward.fog[12].server[0] droppedJobsQueue 884
scalar FogSequentialForward.fog[12].server[0] droppedJobsTimout 0
scalar FogSequentialForward.fog[12].server[0] droppedJobsSLA 8405
scalar FogSequentialForward.fog[12].server[0] droppedJobsTotal 9289
scalar FogSequentialForward.fog[13].dispatcher localJobs 14067
scalar FogSequentialForward.fog[13].dispatcher internalJobs 14460
scalar FogSequentialForward.fog[13].dispatcher externalJobs 3648529
scalar FogSequentialForward.fog[13].dispatcher remoteJobs 3648603
scalar FogSequentialForward.fog[13].dispatcher probeQueries 0
scalar FogSequentialForward.fog[13].dispatcher probeAnswers 0
scalar FogSequentialForward.fog[13].dispatcher droppedJobsSLA 319
scalar FogSequentialForward.fog[13].dispatcher jobs_class_1 3662989
scalar FogSequentialForward.fog[13].dispatcher remoteJobs_class_1 3648603
scalar FogSequentialForward.fog[13].dispatcher localJobs_class_1 14067
scalar FogSequentialForward.fog[13].dispatcher droppedJobsSLA_class_1 319
scalar FogSequentialForward.fog[13].server[0] rho 0.99999988079071
scalar FogSequentialForward.fog[13].server[0] congestionRatio 0
scalar FogSequentialForward.fog[13].server[0] totalJobs 14067
scalar FogSequentialForward.fog[13].server[0] droppedJobsQueue 885
scalar FogSequentialForward.fog[13].server[0] droppedJobsTimout 0
scalar FogSequentialForward.fog[13].server[0] droppedJobsSLA 8396
scalar FogSequentialForward.fog[13].server[0] droppedJobsTotal 9281
scalar FogSequentialForward.fog[14].dispatcher localJobs 14101
scalar FogSequentialForward.fog[14].dispatcher internalJobs 14345
scalar FogSequentialForward.fog[14].dispatcher externalJobs 3651279
scalar FogSequentialForward.fog[14].dispatcher remoteJobs 3651208
scalar FogSequentialForward.fog[14].dispatcher probeQueries 0
scalar FogSequentialForward.fog[14].dispatcher probeAnswers 0
scalar FogSequentialForward.fog[14].dispatcher droppedJobsSLA 315
scalar FogSequentialForward.fog[14].dispatcher jobs_class_1 3665624
scalar FogSequentialForward.fog[14].dispatcher remoteJobs_class_1 3651208
scalar FogSequentialForward.fog[14].dispatcher localJobs_class_1 14101
scalar FogSequentialForward.fog[14].dispatcher droppedJobsSLA_class_1 315
scalar FogSequentialForward.fog[14].server[0] rho 0.99999952316284
scalar FogSequentialForward.fog[14].server[0] congestionRatio 0
scalar FogSequentialForward.fog[14].server[0] totalJobs 14101
scalar FogSequentialForward.fog[14].server[0] droppedJobsQueue 885
scalar FogSequentialForward.fog[14].server[0] droppedJobsTimout 0
scalar FogSequentialForward.fog[14].server[0] droppedJobsSLA 8385
scalar FogSequentialForward.fog[14].server[0] droppedJobsTotal 9270
scalar FogSequentialForward.fog[15].dispatcher localJobs 14021
scalar FogSequentialForward.fog[15].dispatcher internalJobs 14376
scalar FogSequentialForward.fog[15].dispatcher externalJobs 3647712
scalar FogSequentialForward.fog[15].dispatcher remoteJobs 3647762
scalar FogSequentialForward.fog[15].dispatcher probeQueries 0
scalar FogSequentialForward.fog[15].dispatcher probeAnswers 0
scalar FogSequentialForward.fog[15].dispatcher droppedJobsSLA 305
scalar FogSequentialForward.fog[15].dispatcher jobs_class_1 3662088
scalar FogSequentialForward.fog[15].dispatcher remoteJobs_class_1 3647762
scalar FogSequentialForward.fog[15].dispatcher localJobs_class_1 14021
scalar FogSequentialForward.fog[15].dispatcher droppedJobsSLA_class_1 305
scalar FogSequentialForward.fog[15].server[0] rho 1
scalar FogSequentialForward.fog[15].server[0] congestionRatio 0
scalar FogSequentialForward.fog[15].server[0] totalJobs 14021
scalar FogSequentialForward.fog[15].server[0] droppedJobsQueue 879
scalar FogSequentialForward.fog[15].server[0] droppedJobsTimout 0
scalar FogSequentialForward.fog[15].server[0] droppedJobsSLA 8318
scalar FogSequentialForward.fog[15].server[0] droppedJobsTotal 9197
scalar FogSequentialForward.fog[16].dispatcher localJobs 14124
scalar FogSequentialForward.fog[16].dispatcher internalJobs 14277
scalar FogSequentialForward.fog[16].dispatcher externalJobs 3648965
scalar FogSequentialForward.fog[16].dispatcher remoteJobs 3648810
scalar FogSequentialForward.fog[16].dispatcher probeQueries 0
scalar FogSequentialForward.fog[16].dispatcher probeAnswers 0
scalar FogSequentialForward.fog[16].dispatcher droppedJobsSLA 308
scalar FogSequentialForward.fog[16].dispatcher jobs_class_1 3663242
scalar FogSequentialForward.fog[16].dispatcher remoteJobs_class_1 3648810
scalar FogSequentialForward.fog[16].dispatcher localJobs_class_1 14124
scalar FogSequentialForward.fog[16].dispatcher droppedJobsSLA_class_1 308
scalar FogSequentialForward.fog[16].server[0] rho 0.99999976158142
scalar FogSequentialForward.fog[16].server[0] congestionRatio 0
scalar FogSequentialForward.fog[16].server[0] totalJobs 14124
scalar FogSequentialForward.fog[16].server[0] droppedJobsQueue 883
scalar FogSequentialForward.fog[16].server[0] droppedJobsTimout 0
scalar FogSequentialForward.fog[16].server[0] droppedJobsSLA 8409
scalar FogSequentialForward.fog[16].server[0] droppedJobsTotal 9292
scalar FogSequentialForward.fog[17].dispatcher localJobs 14136
scalar FogSequentialForward.fog[17].dispatcher internalJobs 14499
scalar FogSequentialForward.fog[17].dispatcher externalJobs 3648573
scalar FogSequentialForward.fog[17].dispatcher remoteJobs 3648629
scalar FogSequentialForward.fog[17].dispatcher probeQueries 0
scalar FogSequentialForward.fog[17].dispatcher probeAnswers 0
scalar FogSequentialForward.fog[17].dispatcher droppedJobsSLA 307
scalar FogSequentialForward.fog[17].dispatcher jobs_class_1 3663072
scalar FogSequentialForward.fog[17].dispatcher remoteJobs_class_1 3648629
scalar FogSequentialForward.fog[17].dispatcher localJobs_class_1 14136
scalar FogSequentialForward.fog[17].dispatcher droppedJobsSLA_class_1 307
scalar FogSequentialForward.fog[17].server[0] rho 1
scalar FogSequentialForward.fog[17].server[0] congestionRatio 0
scalar FogSequentialForward.fog[17].server[0] totalJobs 14136
scalar FogSequentialForward.fog[17].server[0] droppedJobsQueue 882
scalar FogSequentialForward.fog[17].server[0] droppedJobsTimout 0
scalar FogSequentialForward.fog[17].server[0] droppedJobsSLA 8406
scalar FogSequentialForward.fog[17].server[0] droppedJobsTotal 9288
scalar FogSequentialForward.fog[18].dispatcher localJobs 14058
scalar FogSequentialForward.fog[18].dispatcher internalJobs 14675
scalar FogSequentialForward.fog[18].dispatcher externalJobs 3650746
scalar FogSequentialForward.fog[18].dispatcher remoteJobs 3651025
scalar FogSequentialForward.fog[18].dispatcher probeQueries 0
scalar FogSequentialForward.fog[18].dispatcher probeAnswers 0
scalar FogSequentialForward.fog[18].dispatcher droppedJobsSLA 338
scalar FogSequentialForward.fog[18].dispatcher jobs_class_1 3665421
scalar FogSequentialForward.fog[18].dispatcher remoteJobs_class_1 3651025
scalar FogSequentialForward.fog[18].dispatcher localJobs_class_1 14058
scalar FogSequentialForward.fog[18].dispatcher droppedJobsSLA_class_1 338
scalar FogSequentialForward.fog[18].server[0] rho 0.99999988079071
scalar FogSequentialForward.fog[18].server[0] congestionRatio 0
scalar FogSequentialForward.fog[18].server[0] totalJobs 14058
scalar FogSequentialForward.fog[18].server[0] droppedJobsQueue 878
scalar FogSequentialForward.fog[18].server[0] droppedJobsTimout 0
scalar FogSequentialForward.fog[18].server[0] droppedJobsSLA 8370
scalar FogSequentialForward.fog[18].server[0] droppedJobsTotal 9248
scalar FogSequentialForward.fog[19].dispatcher localJobs 14092
scalar FogSequentialForward.fog[19].dispatcher internalJobs 14503
scalar FogSequentialForward.fog[19].dispatcher externalJobs 3645867
scalar FogSequentialForward.fog[19].dispatcher remoteJobs 3645962
scalar FogSequentialForward.fog[19].dispatcher probeQueries 0
scalar FogSequentialForward.fog[19].dispatcher probeAnswers 0
scalar FogSequentialForward.fog[19].dispatcher droppedJobsSLA 316
scalar FogSequentialForward.fog[19].dispatcher jobs_class_1 3660370
scalar FogSequentialForward.fog[19].dispatcher remoteJobs_class_1 3645962
scalar FogSequentialForward.fog[19].dispatcher localJobs_class_1 14092
scalar FogSequentialForward.fog[19].dispatcher droppedJobsSLA_class_1 316
scalar FogSequentialForward.fog[19].server[0] rho 0.99996960163116
scalar FogSequentialForward.fog[19].server[0] congestionRatio 0
scalar FogSequentialForward.fog[19].server[0] totalJobs 14092
scalar FogSequentialForward.fog[19].server[0] droppedJobsQueue 884
scalar FogSequentialForward.fog[19].server[0] droppedJobsTimout 0
scalar FogSequentialForward.fog[19].server[0] droppedJobsSLA 8407
scalar FogSequentialForward.fog[19].server[0] droppedJobsTotal 9291
scalar FogSequentialForward.fog[20].dispatcher localJobs 14124
scalar FogSequentialForward.fog[20].dispatcher internalJobs 14524
scalar FogSequentialForward.fog[20].dispatcher externalJobs 3647883
scalar FogSequentialForward.fog[20].dispatcher remoteJobs 3647962
scalar FogSequentialForward.fog[20].dispatcher probeQueries 0
scalar FogSequentialForward.fog[20].dispatcher probeAnswers 0
scalar FogSequentialForward.fog[20].dispatcher droppedJobsSLA 321
scalar FogSequentialForward.fog[20].dispatcher jobs_class_1 3662407
scalar FogSequentialForward.fog[20].dispatcher remoteJobs_class_1 3647962
scalar FogSequentialForward.fog[20].dispatcher localJobs_class_1 14124
scalar FogSequentialForward.fog[20].dispatcher droppedJobsSLA_class_1 321
scalar FogSequentialForward.fog[20].server[0] rho 0.99996507167816
scalar FogSequentialForward.fog[20].server[0] congestionRatio 0
scalar FogSequentialForward.fog[20].server[0] totalJobs 14124
scalar FogSequentialForward.fog[20].server[0] droppedJobsQueue 882
scalar FogSequentialForward.fog[20].server[0] droppedJobsTimout 0
scalar FogSequentialForward.fog[20].server[0] droppedJobsSLA 8411
scalar FogSequentialForward.fog[20].server[0] droppedJobsTotal 9293
scalar FogSequentialForward.fog[21].dispatcher localJobs 14119
scalar FogSequentialForward.fog[21].dispatcher internalJobs 14433
scalar FogSequentialForward.fog[21].dispatcher externalJobs 3649972
scalar FogSequentialForward.fog[21].dispatcher remoteJobs 3649959
scalar FogSequentialForward.fog[21].dispatcher probeQueries 0
scalar FogSequentialForward.fog[21].dispatcher probeAnswers 0
scalar FogSequentialForward.fog[21].dispatcher droppedJobsSLA 327
scalar FogSequentialForward.fog[21].dispatcher jobs_class_1 3664405
scalar FogSequentialForward.fog[21].dispatcher remoteJobs_class_1 3649959
scalar FogSequentialForward.fog[21].dispatcher localJobs_class_1 14119
scalar FogSequentialForward.fog[21].dispatcher droppedJobsSLA_class_1 327
scalar FogSequentialForward.fog[21].server[0] rho 1
scalar FogSequentialForward.fog[21].server[0] congestionRatio 0
scalar FogSequentialForward.fog[21].server[0] totalJobs 14119
scalar FogSequentialForward.fog[21].server[0] droppedJobsQueue 886
scalar FogSequentialForward.fog[21].server[0] droppedJobsTimout 0
scalar FogSequentialForward.fog[21].server[0] droppedJobsSLA 8413
scalar FogSequentialForward.fog[21].server[0] droppedJobsTotal 9299
scalar FogSequentialForward.fog[22].dispatcher localJobs 14085
scalar FogSequentialForward.fog[22].dispatcher internalJobs 14410
scalar FogSequentialForward.fog[22].dispatcher externalJobs 3648458
scalar FogSequentialForward.fog[22].dispatcher remoteJobs 3648478
scalar FogSequentialForward.fog[22].dispatcher probeQueries 0
scalar FogSequentialForward.fog[22].dispatcher probeAnswers 0
scalar FogSequentialForward.fog[22].dispatcher droppedJobsSLA 305
scalar FogSequentialForward.fog[22].dispatcher jobs_class_1 3662868
scalar FogSequentialForward.fog[22].dispatcher remoteJobs_class_1 3648478
scalar FogSequentialForward.fog[22].dispatcher localJobs_class_1 14085
scalar FogSequentialForward.fog[22].dispatcher droppedJobsSLA_class_1 305
scalar FogSequentialForward.fog[22].server[0] rho 1
scalar FogSequentialForward.fog[22].server[0] congestionRatio 0
scalar FogSequentialForward.fog[22].server[0] totalJobs 14085
scalar FogSequentialForward.fog[22].server[0] droppedJobsQueue 884
scalar FogSequentialForward.fog[22].server[0] droppedJobsTimout 0
scalar FogSequentialForward.fog[22].server[0] droppedJobsSLA 8391
scalar FogSequentialForward.fog[22].server[0] droppedJobsTotal 9275
scalar FogSequentialForward.fog[23].dispatcher localJobs 14098
scalar FogSequentialForward.fog[23].dispatcher internalJobs 14354
scalar FogSequentialForward.fog[23].dispatcher externalJobs 3646747
scalar FogSequentialForward.fog[23].dispatcher remoteJobs 3646690
scalar FogSequentialForward.fog[23].dispatcher probeQueries 0
scalar FogSequentialForward.fog[23].dispatcher probeAnswers 0
scalar FogSequentialForward.fog[23].dispatcher droppedJobsSLA 313
scalar FogSequentialForward.fog[23].dispatcher jobs_class_1 3661101
scalar FogSequentialForward.fog[23].dispatcher remoteJobs_class_1 3646690
scalar FogSequentialForward.fog[23].dispatcher localJobs_class_1 14098
scalar FogSequentialForward.fog[23].dispatcher droppedJobsSLA_class_1 313
scalar FogSequentialForward.fog[23].server[0] rho 0.99999976158142
scalar FogSequentialForward.fog[23].server[0] congestionRatio 0
scalar FogSequentialForward.fog[23].server[0] totalJobs 14098
scalar FogSequentialForward.fog[23].server[0] droppedJobsQueue 885
scalar FogSequentialForward.fog[23].server[0] droppedJobsTimout 0
scalar FogSequentialForward.fog[23].server[0] droppedJobsSLA 8372
scalar FogSequentialForward.fog[23].server[0] droppedJobsTotal 9257
scalar FogSequentialForward.fog[24].dispatcher localJobs 14180
scalar FogSequentialForward.fog[24].dispatcher internalJobs 14486
scalar FogSequentialForward.fog[24].dispatcher externalJobs 3647295
scalar FogSequentialForward.fog[24].dispatcher remoteJobs 3647273
scalar FogSequentialForward.fog[24].dispatcher probeQueries 0
scalar FogSequentialForward.fog[24].dispatcher probeAnswers 0
scalar FogSequentialForward.fog[24].dispatcher droppedJobsSLA 328
scalar FogSequentialForward.fog[24].dispatcher jobs_class_1 3661781
scalar FogSequentialForward.fog[24].dispatcher remoteJobs_class_1 3647273
scalar FogSequentialForward.fog[24].dispatcher localJobs_class_1 14180
scalar FogSequentialForward.fog[24].dispatcher droppedJobsSLA_class_1 328
scalar FogSequentialForward.fog[24].server[0] rho 0.99999970197678
scalar FogSequentialForward.fog[24].server[0] congestionRatio 0
scalar FogSequentialForward.fog[24].server[0] totalJobs 14180
scalar FogSequentialForward.fog[24].server[0] droppedJobsQueue 887
scalar FogSequentialForward.fog[24].server[0] droppedJobsTimout 0
scalar FogSequentialForward.fog[24].server[0] droppedJobsSLA 8471
scalar FogSequentialForward.fog[24].server[0] droppedJobsTotal 9358
scalar FogSequentialForward.fog[25].dispatcher localJobs 14104
scalar FogSequentialForward.fog[25].dispatcher internalJobs 14509
scalar FogSequentialForward.fog[25].dispatcher externalJobs 3646161
scalar FogSequentialForward.fog[25].dispatcher remoteJobs 3646280
scalar FogSequentialForward.fog[25].dispatcher probeQueries 0
scalar FogSequentialForward.fog[25].dispatcher probeAnswers 0
scalar FogSequentialForward.fog[25].dispatcher droppedJobsSLA 286
scalar FogSequentialForward.fog[25].dispatcher jobs_class_1 3660670
scalar FogSequentialForward.fog[25].dispatcher remoteJobs_class_1 3646280
scalar FogSequentialForward.fog[25].dispatcher localJobs_class_1 14104
scalar FogSequentialForward.fog[25].dispatcher droppedJobsSLA_class_1 286
scalar FogSequentialForward.fog[25].server[0] rho 1
scalar FogSequentialForward.fog[25].server[0] congestionRatio 0
scalar FogSequentialForward.fog[25].server[0] totalJobs 14104
scalar FogSequentialForward.fog[25].server[0] droppedJobsQueue 882
scalar FogSequentialForward.fog[25].server[0] droppedJobsTimout 0
scalar FogSequentialForward.fog[25].server[0] droppedJobsSLA 8342
scalar FogSequentialForward.fog[25].server[0] droppedJobsTotal 9224
scalar FogSequentialForward.fog[26].dispatcher localJobs 14131
scalar FogSequentialForward.fog[26].dispatcher internalJobs 14567
scalar FogSequentialForward.fog[26].dispatcher externalJobs 3650508
scalar FogSequentialForward.fog[26].dispatcher remoteJobs 3650652
scalar FogSequentialForward.fog[26].dispatcher probeQueries 0
scalar FogSequentialForward.fog[26].dispatcher probeAnswers 0
scalar FogSequentialForward.fog[26].dispatcher droppedJobsSLA 292
scalar FogSequentialForward.fog[26].dispatcher jobs_class_1 3665075
scalar FogSequentialForward.fog[26].dispatcher remoteJobs_class_1 3650652
scalar FogSequentialForward.fog[26].dispatcher localJobs_class_1 14131
scalar FogSequentialForward.fog[26].dispatcher droppedJobsSLA_class_1 292
scalar FogSequentialForward.fog[26].server[0] rho 0.99999988079071
scalar FogSequentialForward.fog[26].server[0] congestionRatio 0
scalar FogSequentialForward.fog[26].server[0] totalJobs 14131
scalar FogSequentialForward.fog[26].server[0] droppedJobsQueue 884
scalar FogSequentialForward.fog[26].server[0] droppedJobsTimout 0
scalar FogSequentialForward.fog[26].server[0] droppedJobsSLA 8386
scalar FogSequentialForward.fog[26].server[0] droppedJobsTotal 9270
scalar FogSequentialForward.fog[27].dispatcher localJobs 14082
scalar FogSequentialForward.fog[27].dispatcher internalJobs 14379
scalar FogSequentialForward.fog[27].dispatcher externalJobs 3648146
scalar FogSequentialForward.fog[27].dispatcher remoteJobs 3648142
scalar FogSequentialForward.fog[27].dispatcher probeQueries 0
scalar FogSequentialForward.fog[27].dispatcher probeAnswers 0
scalar FogSequentialForward.fog[27].dispatcher droppedJobsSLA 301
scalar FogSequentialForward.fog[27].dispatcher jobs_class_1 3662525
scalar FogSequentialForward.fog[27].dispatcher remoteJobs_class_1 3648142
scalar FogSequentialForward.fog[27].dispatcher localJobs_class_1 14082
scalar FogSequentialForward.fog[27].dispatcher droppedJobsSLA_class_1 301
scalar FogSequentialForward.fog[27].server[0] rho 0.99999964237213
scalar FogSequentialForward.fog[27].server[0] congestionRatio 0
scalar FogSequentialForward.fog[27].server[0] totalJobs 14082
scalar FogSequentialForward.fog[27].server[0] droppedJobsQueue 882
scalar FogSequentialForward.fog[27].server[0] droppedJobsTimout 0
scalar FogSequentialForward.fog[27].server[0] droppedJobsSLA 8423
scalar FogSequentialForward.fog[27].server[0] droppedJobsTotal 9305
scalar FogSequentialForward.fog[28].dispatcher localJobs 14085
scalar FogSequentialForward.fog[28].dispatcher internalJobs 14446
scalar FogSequentialForward.fog[28].dispatcher externalJobs 3650059
scalar FogSequentialForward.fog[28].dispatcher remoteJobs 3650107
scalar FogSequentialForward.fog[28].dispatcher probeQueries 0
scalar FogSequentialForward.fog[28].dispatcher probeAnswers 0
scalar FogSequentialForward.fog[28].dispatcher droppedJobsSLA 313
scalar FogSequentialForward.fog[28].dispatcher jobs_class_1 3664505
scalar FogSequentialForward.fog[28].dispatcher remoteJobs_class_1 3650107
scalar FogSequentialForward.fog[28].dispatcher localJobs_class_1 14085
scalar FogSequentialForward.fog[28].dispatcher droppedJobsSLA_class_1 313
scalar FogSequentialForward.fog[28].server[0] rho 1
scalar FogSequentialForward.fog[28].server[0] congestionRatio 0
scalar FogSequentialForward.fog[28].server[0] totalJobs 14085
scalar FogSequentialForward.fog[28].server[0] droppedJobsQueue 880
scalar FogSequentialForward.fog[28].server[0] droppedJobsTimout 0
scalar FogSequentialForward.fog[28].server[0] droppedJobsSLA 8437
scalar FogSequentialForward.fog[28].server[0] droppedJobsTotal 9317
scalar FogSequentialForward.fog[29].dispatcher localJobs 14124
scalar FogSequentialForward.fog[29].dispatcher internalJobs 14274
scalar FogSequentialForward.fog[29].dispatcher externalJobs 3649871
scalar FogSequentialForward.fog[29].dispatcher remoteJobs 3649721
scalar FogSequentialForward.fog[29].dispatcher probeQueries 0
scalar FogSequentialForward.fog[29].dispatcher probeAnswers 0
scalar FogSequentialForward.fog[29].dispatcher droppedJobsSLA 300
scalar FogSequentialForward.fog[29].dispatcher jobs_class_1 3664145
scalar FogSequentialForward.fog[29].dispatcher remoteJobs_class_1 3649721
scalar FogSequentialForward.fog[29].dispatcher localJobs_class_1 14124
scalar FogSequentialForward.fog[29].dispatcher droppedJobsSLA_class_1 300
scalar FogSequentialForward.fog[29].server[0] rho 1
scalar FogSequentialForward.fog[29].server[0] congestionRatio 0
scalar FogSequentialForward.fog[29].server[0] totalJobs 14124
scalar FogSequentialForward.fog[29].server[0] droppedJobsQueue 887
scalar FogSequentialForward.fog[29].server[0] droppedJobsTimout 0
scalar FogSequentialForward.fog[29].server[0] droppedJobsSLA 8426
scalar FogSequentialForward.fog[29].server[0] droppedJobsTotal 9313
scalar FogSequentialForward.fog[30].dispatcher localJobs 14133
scalar FogSequentialForward.fog[30].dispatcher internalJobs 14632
scalar FogSequentialForward.fog[30].dispatcher externalJobs 3643793
scalar FogSequentialForward.fog[30].dispatcher remoteJobs 3644007
scalar FogSequentialForward.fog[30].dispatcher probeQueries 0
scalar FogSequentialForward.fog[30].dispatcher probeAnswers 0
scalar FogSequentialForward.fog[30].dispatcher droppedJobsSLA 285
scalar FogSequentialForward.fog[30].dispatcher jobs_class_1 3658425
scalar FogSequentialForward.fog[30].dispatcher remoteJobs_class_1 3644007
scalar FogSequentialForward.fog[30].dispatcher localJobs_class_1 14133
scalar FogSequentialForward.fog[30].dispatcher droppedJobsSLA_class_1 285
scalar FogSequentialForward.fog[30].server[0] rho 0.99999952316284
scalar FogSequentialForward.fog[30].server[0] congestionRatio 0
scalar FogSequentialForward.fog[30].server[0] totalJobs 14133
scalar FogSequentialForward.fog[30].server[0] droppedJobsQueue 888
scalar FogSequentialForward.fog[30].server[0] droppedJobsTimout 0
scalar FogSequentialForward.fog[30].server[0] droppedJobsSLA 8375
scalar FogSequentialForward.fog[30].server[0] droppedJobsTotal 9263
scalar FogSequentialForward.fog[31].dispatcher localJobs 14108
scalar FogSequentialForward.fog[31].dispatcher internalJobs 14463
scalar FogSequentialForward.fog[31].dispatcher externalJobs 3649091
scalar FogSequentialForward.fog[31].dispatcher remoteJobs 3649145
scalar FogSequentialForward.fog[31].dispatcher probeQueries 0
scalar FogSequentialForward.fog[31].dispatcher probeAnswers 0
scalar FogSequentialForward.fog[31].dispatcher droppedJobsSLA 301
scalar FogSequentialForward.fog[31].dispatcher jobs_class_1 3663554
scalar FogSequentialForward.fog[31].dispatcher remoteJobs_class_1 3649145
scalar FogSequentialForward.fog[31].dispatcher localJobs_class_1 14108
scalar FogSequentialForward.fog[31].dispatcher droppedJobsSLA_class_1 301
scalar FogSequentialForward.fog[31].server[0] rho 0.99999988079071
scalar FogSequentialForward.fog[31].server[0] congestionRatio 0
scalar FogSequentialForward.fog[31].server[0] totalJobs 14108
scalar FogSequentialForward.fog[31].server[0] droppedJobsQueue 884
scalar FogSequentialForward.fog[31].server[0] droppedJobsTimout 0
scalar FogSequentialForward.fog[31].server[0] droppedJobsSLA 8424
scalar FogSequentialForward.fog[31].server[0] droppedJobsTotal 9308
scalar FogSequentialForward.fog[32].dispatcher localJobs 14094
scalar FogSequentialForward.fog[32].dispatcher internalJobs 14590
scalar FogSequentialForward.fog[32].dispatcher externalJobs 3648291
scalar FogSequentialForward.fog[32].dispatcher remoteJobs 3648467
scalar FogSequentialForward.fog[32].dispatcher probeQueries 0
scalar FogSequentialForward.fog[32].dispatcher probeAnswers 0
scalar FogSequentialForward.fog[32].dispatcher droppedJobsSLA 320
scalar FogSequentialForward.fog[32].dispatcher jobs_class_1 3662881
scalar FogSequentialForward.fog[32].dispatcher remoteJobs_class_1 3648467
scalar FogSequentialForward.fog[32].dispatcher localJobs_class_1 14094
scalar FogSequentialForward.fog[32].dispatcher droppedJobsSLA_class_1 320
scalar FogSequentialForward.fog[32].server[0] rho 1
scalar FogSequentialForward.fog[32].server[0] congestionRatio 0
scalar FogSequentialForward.fog[32].server[0] totalJobs 14094
scalar FogSequentialForward.fog[32].server[0] droppedJobsQueue 885
scalar FogSequentialForward.fog[32].server[0] droppedJobsTimout 0
scalar FogSequentialForward.fog[32].server[0] droppedJobsSLA 8426
scalar FogSequentialForward.fog[32].server[0] droppedJobsTotal 9311
scalar FogSequentialForward.fog[33].dispatcher localJobs 14107
scalar FogSequentialForward.fog[33].dispatcher internalJobs 14195
scalar FogSequentialForward.fog[33].dispatcher externalJobs 3650372
scalar FogSequentialForward.fog[33].dispatcher remoteJobs 3650163
scalar FogSequentialForward.fog[33].dispatcher probeQueries 0
scalar FogSequentialForward.fog[33].dispatcher probeAnswers 0
scalar FogSequentialForward.fog[33].dispatcher droppedJobsSLA 297
scalar FogSequentialForward.fog[33].dispatcher jobs_class_1 3664567
scalar FogSequentialForward.fog[33].dispatcher remoteJobs_class_1 3650163
scalar FogSequentialForward.fog[33].dispatcher localJobs_class_1 14107
scalar FogSequentialForward.fog[33].dispatcher droppedJobsSLA_class_1 297
scalar FogSequentialForward.fog[33].server[0] rho 0.99997174739838
scalar FogSequentialForward.fog[33].server[0] congestionRatio 0
scalar FogSequentialForward.fog[33].server[0] totalJobs 14107
scalar FogSequentialForward.fog[33].server[0] droppedJobsQueue 884
scalar FogSequentialForward.fog[33].server[0] droppedJobsTimout 0
scalar FogSequentialForward.fog[33].server[0] droppedJobsSLA 8435
scalar FogSequentialForward.fog[33].server[0] droppedJobsTotal 9319
scalar FogSequentialForward.fog[34].dispatcher localJobs 14069
scalar FogSequentialForward.fog[34].dispatcher internalJobs 14407
scalar FogSequentialForward.fog[34].dispatcher externalJobs 3645865
scalar FogSequentialForward.fog[34].dispatcher remoteJobs 3645918
scalar FogSequentialForward.fog[34].dispatcher probeQueries 0
scalar FogSequentialForward.fog[34].dispatcher probeAnswers 0
scalar FogSequentialForward.fog[34].dispatcher droppedJobsSLA 285
scalar FogSequentialForward.fog[34].dispatcher jobs_class_1 3660272
scalar FogSequentialForward.fog[34].dispatcher remoteJobs_class_1 3645918
scalar FogSequentialForward.fog[34].dispatcher localJobs_class_1 14069
scalar FogSequentialForward.fog[34].dispatcher droppedJobsSLA_class_1 285
scalar FogSequentialForward.fog[34].server[0] rho 1
scalar FogSequentialForward.fog[34].server[0] congestionRatio 0
scalar FogSequentialForward.fog[34].server[0] totalJobs 14069
scalar FogSequentialForward.fog[34].server[0] droppedJobsQueue 880
scalar FogSequentialForward.fog[34].server[0] droppedJobsTimout 0
scalar FogSequentialForward.fog[34].server[0] droppedJobsSLA 8352
scalar FogSequentialForward.fog[34].server[0] droppedJobsTotal 9232
scalar FogSequentialForward.fog[35].dispatcher localJobs 14197
scalar FogSequentialForward.fog[35].dispatcher internalJobs 14365
scalar FogSequentialForward.fog[35].dispatcher externalJobs 3650592
scalar FogSequentialForward.fog[35].dispatcher remoteJobs 3650427
scalar FogSequentialForward.fog[35].dispatcher probeQueries 0
scalar FogSequentialForward.fog[35].dispatcher probeAnswers 0
scalar FogSequentialForward.fog[35].dispatcher droppedJobsSLA 333
scalar FogSequentialForward.fog[35].dispatcher jobs_class_1 3664957
scalar FogSequentialForward.fog[35].dispatcher remoteJobs_class_1 3650427
scalar FogSequentialForward.fog[35].dispatcher localJobs_class_1 14197
scalar FogSequentialForward.fog[35].dispatcher droppedJobsSLA_class_1 333
scalar FogSequentialForward.fog[35].server[0] rho 1
scalar FogSequentialForward.fog[35].server[0] congestionRatio 0
scalar FogSequentialForward.fog[35].server[0] totalJobs 14197
scalar FogSequentialForward.fog[35].server[0] droppedJobsQueue 886
scalar FogSequentialForward.fog[35].server[0] droppedJobsTimout 0
scalar FogSequentialForward.fog[35].server[0] droppedJobsSLA 8510
scalar FogSequentialForward.fog[35].server[0] droppedJobsTotal 9396
scalar FogSequentialForward.fog[36].dispatcher localJobs 14066
scalar FogSequentialForward.fog[36].dispatcher internalJobs 14368
scalar FogSequentialForward.fog[36].dispatcher externalJobs 3648251
scalar FogSequentialForward.fog[36].dispatcher remoteJobs 3648242
scalar FogSequentialForward.fog[36].dispatcher probeQueries 0
scalar FogSequentialForward.fog[36].dispatcher probeAnswers 0
scalar FogSequentialForward.fog[36].dispatcher droppedJobsSLA 311
scalar FogSequentialForward.fog[36].dispatcher jobs_class_1 3662619
scalar FogSequentialForward.fog[36].dispatcher remoteJobs_class_1 3648242
scalar FogSequentialForward.fog[36].dispatcher localJobs_class_1 14066
scalar FogSequentialForward.fog[36].dispatcher droppedJobsSLA_class_1 311
scalar FogSequentialForward.fog[36].server[0] rho 1
scalar FogSequentialForward.fog[36].server[0] congestionRatio 0
scalar FogSequentialForward.fog[36].server[0] totalJobs 14066
scalar FogSequentialForward.fog[36].server[0] droppedJobsQueue 882
scalar FogSequentialForward.fog[36].server[0] droppedJobsTimout 0
scalar FogSequentialForward.fog[36].server[0] droppedJobsSLA 8419
scalar FogSequentialForward.fog[36].server[0] droppedJobsTotal 9301
scalar FogSequentialForward.fog[37].dispatcher localJobs 14068
scalar FogSequentialForward.fog[37].dispatcher internalJobs 14426
scalar FogSequentialForward.fog[37].dispatcher externalJobs 3649438
scalar FogSequentialForward.fog[37].dispatcher remoteJobs 3649483
scalar FogSequentialForward.fog[37].dispatcher probeQueries 0
scalar FogSequentialForward.fog[37].dispatcher probeAnswers 0
scalar FogSequentialForward.fog[37].dispatcher droppedJobsSLA 313
scalar FogSequentialForward.fog[37].dispatcher jobs_class_1 3663864
scalar FogSequentialForward.fog[37].dispatcher remoteJobs_class_1 3649483
scalar FogSequentialForward.fog[37].dispatcher localJobs_class_1 14068
scalar FogSequentialForward.fog[37].dispatcher droppedJobsSLA_class_1 313
scalar FogSequentialForward.fog[37].server[0] rho 0.99995535612106
scalar FogSequentialForward.fog[37].server[0] congestionRatio 0
scalar FogSequentialForward.fog[37].server[0] totalJobs 14068
scalar FogSequentialForward.fog[37].server[0] droppedJobsQueue 883
scalar FogSequentialForward.fog[37].server[0] droppedJobsTimout 0
scalar FogSequentialForward.fog[37].server[0] droppedJobsSLA 8347
scalar FogSequentialForward.fog[37].server[0] droppedJobsTotal 9230
scalar FogSequentialForward.fog[38].dispatcher localJobs 14081
scalar FogSequentialForward.fog[38].dispatcher internalJobs 14318
scalar FogSequentialForward.fog[38].dispatcher externalJobs 3649076
scalar FogSequentialForward.fog[38].dispatcher remoteJobs 3648989
scalar FogSequentialForward.fog[38].dispatcher probeQueries 0
scalar FogSequentialForward.fog[38].dispatcher probeAnswers 0
scalar FogSequentialForward.fog[38].dispatcher droppedJobsSLA 324
scalar FogSequentialForward.fog[38].dispatcher jobs_class_1 3663394
scalar FogSequentialForward.fog[38].dispatcher remoteJobs_class_1 3648989
scalar FogSequentialForward.fog[38].dispatcher localJobs_class_1 14081
scalar FogSequentialForward.fog[38].dispatcher droppedJobsSLA_class_1 324
scalar FogSequentialForward.fog[38].server[0] rho 1
scalar FogSequentialForward.fog[38].server[0] congestionRatio 0
scalar FogSequentialForward.fog[38].server[0] totalJobs 14081
scalar FogSequentialForward.fog[38].server[0] droppedJobsQueue 881
scalar FogSequentialForward.fog[38].server[0] droppedJobsTimout 0
scalar FogSequentialForward.fog[38].server[0] droppedJobsSLA 8395
scalar FogSequentialForward.fog[38].server[0] droppedJobsTotal 9276
scalar FogSequentialForward.fog[39].dispatcher localJobs 14088
scalar FogSequentialForward.fog[39].dispatcher internalJobs 14166
scalar FogSequentialForward.fog[39].dispatcher externalJobs 3649096
scalar FogSequentialForward.fog[39].dispatcher remoteJobs 3648870
scalar FogSequentialForward.fog[39].dispatcher probeQueries 0
scalar FogSequentialForward.fog[39].dispatcher probeAnswers 0
scalar FogSequentialForward.fog[39].dispatcher droppedJobsSLA 304
scalar FogSequentialForward.fog[39].dispatcher jobs_class_1 3663262
scalar FogSequentialForward.fog[39].dispatcher remoteJobs_class_1 3648870
scalar FogSequentialForward.fog[39].dispatcher localJobs_class_1 14088
scalar FogSequentialForward.fog[39].dispatcher droppedJobsSLA_class_1 304
scalar FogSequentialForward.fog[39].server[0] rho 0.99999958276749
scalar FogSequentialForward.fog[39].server[0] congestionRatio 0
scalar FogSequentialForward.fog[39].server[0] totalJobs 14088
scalar FogSequentialForward.fog[39].server[0] droppedJobsQueue 880
scalar FogSequentialForward.fog[39].server[0] droppedJobsTimout 0
scalar FogSequentialForward.fog[39].server[0] droppedJobsSLA 8399
scalar FogSequentialForward.fog[39].server[0] droppedJobsTotal 9279
scalar FogSequentialForward.fog[40].dispatcher localJobs 14098
scalar FogSequentialForward.fog[40].dispatcher internalJobs 14237
scalar FogSequentialForward.fog[40].dispatcher externalJobs 3650845
scalar FogSequentialForward.fog[40].dispatcher remoteJobs 3650679
scalar FogSequentialForward.fog[40].dispatcher probeQueries 0
scalar FogSequentialForward.fog[40].dispatcher probeAnswers 0
scalar FogSequentialForward.fog[40].dispatcher droppedJobsSLA 305
scalar FogSequentialForward.fog[40].dispatcher jobs_class_1 3665082
scalar FogSequentialForward.fog[40].dispatcher remoteJobs_class_1 3650679
scalar FogSequentialForward.fog[40].dispatcher localJobs_class_1 14098
scalar FogSequentialForward.fog[40].dispatcher droppedJobsSLA_class_1 305
scalar FogSequentialForward.fog[40].server[0] rho 0.99999994039536
scalar FogSequentialForward.fog[40].server[0] congestionRatio 0
scalar FogSequentialForward.fog[40].server[0] totalJobs 14098
scalar FogSequentialForward.fog[40].server[0] droppedJobsQueue 885
scalar FogSequentialForward.fog[40].server[0] droppedJobsTimout 0
scalar FogSequentialForward.fog[40].server[0] droppedJobsSLA 8361
scalar FogSequentialForward.fog[40].server[0] droppedJobsTotal 9246
scalar FogSequentialForward.fog[41].dispatcher localJobs 14109
scalar FogSequentialForward.fog[41].dispatcher internalJobs 14522
scalar FogSequentialForward.fog[41].dispatcher externalJobs 3649319
scalar FogSequentialForward.fog[41].dispatcher remoteJobs 3649444
scalar FogSequentialForward.fog[41].dispatcher probeQueries 0
scalar FogSequentialForward.fog[41].dispatcher probeAnswers 0
scalar FogSequentialForward.fog[41].dispatcher droppedJobsSLA 288
scalar FogSequentialForward.fog[41].dispatcher jobs_class_1 3663841
scalar FogSequentialForward.fog[41].dispatcher remoteJobs_class_1 3649444
scalar FogSequentialForward.fog[41].dispatcher localJobs_class_1 14109
scalar FogSequentialForward.fog[41].dispatcher droppedJobsSLA_class_1 288
scalar FogSequentialForward.fog[41].server[0] rho 1
scalar FogSequentialForward.fog[41].server[0] congestionRatio 0
scalar FogSequentialForward.fog[41].server[0] totalJobs 14109
scalar FogSequentialForward.fog[41].server[0] droppedJobsQueue 882
scalar FogSequentialForward.fog[41].server[0] droppedJobsTimout 0
scalar FogSequentialForward.fog[41].server[0] droppedJobsSLA 8450
scalar FogSequentialForward.fog[41].server[0] droppedJobsTotal 9332
scalar FogSequentialForward.fog[42].dispatcher localJobs 14125
scalar FogSequentialForward.fog[42].dispatcher internalJobs 14198
scalar FogSequentialForward.fog[42].dispatcher externalJobs 3644597
scalar FogSequentialForward.fog[42].dispatcher remoteJobs 3644363
scalar FogSequentialForward.fog[42].dispatcher probeQueries 0
scalar FogSequentialForward.fog[42].dispatcher probeAnswers 0
scalar FogSequentialForward.fog[42].dispatcher droppedJobsSLA 307
scalar FogSequentialForward.fog[42].dispatcher jobs_class_1 3658795
scalar FogSequentialForward.fog[42].dispatcher remoteJobs_class_1 3644363
scalar FogSequentialForward.fog[42].dispatcher localJobs_class_1 14125
scalar FogSequentialForward.fog[42].dispatcher droppedJobsSLA_class_1 307
scalar FogSequentialForward.fog[42].server[0] rho 1
scalar FogSequentialForward.fog[42].server[0] congestionRatio 0
scalar FogSequentialForward.fog[42].server[0] totalJobs 14125
scalar FogSequentialForward.fog[42].server[0] droppedJobsQueue 884
scalar FogSequentialForward.fog[42].server[0] droppedJobsTimout 0
scalar FogSequentialForward.fog[42].server[0] droppedJobsSLA 8410
scalar FogSequentialForward.fog[42].server[0] droppedJobsTotal 9294
scalar FogSequentialForward.fog[43].dispatcher localJobs 14065
scalar FogSequentialForward.fog[43].dispatcher internalJobs 14336
scalar FogSequentialForward.fog[43].dispatcher externalJobs 3650600
scalar FogSequentialForward.fog[43].dispatcher remoteJobs 3650579
scalar FogSequentialForward.fog[43].dispatcher probeQueries 0
scalar FogSequentialForward.fog[43].dispatcher probeAnswers 0
scalar FogSequentialForward.fog[43].dispatcher droppedJobsSLA 292
scalar FogSequentialForward.fog[43].dispatcher jobs_class_1 3664936
scalar FogSequentialForward.fog[43].dispatcher remoteJobs_class_1 3650579
scalar FogSequentialForward.fog[43].dispatcher localJobs_class_1 14065
scalar FogSequentialForward.fog[43].dispatcher droppedJobsSLA_class_1 292
scalar FogSequentialForward.fog[43].server[0] rho 1
scalar FogSequentialForward.fog[43].server[0] congestionRatio 0
scalar FogSequentialForward.fog[43].server[0] totalJobs 14065
scalar FogSequentialForward.fog[43].server[0] droppedJobsQueue 884
scalar FogSequentialForward.fog[43].server[0] droppedJobsTimout 0
scalar FogSequentialForward.fog[43].server[0] droppedJobsSLA 8357
scalar FogSequentialForward.fog[43].server[0] droppedJobsTotal 9241
scalar FogSequentialForward.fog[44].dispatcher localJobs 14072
scalar FogSequentialForward.fog[44].dispatcher internalJobs 14371
scalar FogSequentialForward.fog[44].dispatcher externalJobs 3645861
scalar FogSequentialForward.fog[44].dispatcher remoteJobs 3645833
scalar FogSequentialForward.fog[44].dispatcher probeQueries 0
scalar FogSequentialForward.fog[44].dispatcher probeAnswers 0
scalar FogSequentialForward.fog[44].dispatcher droppedJobsSLA 327
scalar FogSequentialForward.fog[44].dispatcher jobs_class_1 3660232
scalar FogSequentialForward.fog[44].dispatcher remoteJobs_class_1 3645833
scalar FogSequentialForward.fog[44].dispatcher localJobs_class_1 14072
scalar FogSequentialForward.fog[44].dispatcher droppedJobsSLA_class_1 327
scalar FogSequentialForward.fog[44].server[0] rho 0.99999994039536
scalar FogSequentialForward.fog[44].server[0] congestionRatio 0
scalar FogSequentialForward.fog[44].server[0] totalJobs 14072
scalar FogSequentialForward.fog[44].server[0] droppedJobsQueue 877
scalar FogSequentialForward.fog[44].server[0] droppedJobsTimout 0
scalar FogSequentialForward.fog[44].server[0] droppedJobsSLA 8375
scalar FogSequentialForward.fog[44].server[0] droppedJobsTotal 9252
scalar FogSequentialForward.fog[45].dispatcher localJobs 14082
scalar FogSequentialForward.fog[45].dispatcher internalJobs 14502
scalar FogSequentialForward.fog[45].dispatcher externalJobs 3650388
scalar FogSequentialForward.fog[45].dispatcher remoteJobs 3650467
scalar FogSequentialForward.fog[45].dispatcher probeQueries 0
scalar FogSequentialForward.fog[45].dispatcher probeAnswers 0
scalar FogSequentialForward.fog[45].dispatcher droppedJobsSLA 341
scalar FogSequentialForward.fog[45].dispatcher jobs_class_1 3664890
scalar FogSequentialForward.fog[45].dispatcher remoteJobs_class_1 3650467
scalar FogSequentialForward.fog[45].dispatcher localJobs_class_1 14082
scalar FogSequentialForward.fog[45].dispatcher droppedJobsSLA_class_1 341
scalar FogSequentialForward.fog[45].server[0] rho 1
scalar FogSequentialForward.fog[45].server[0] congestionRatio 0
scalar FogSequentialForward.fog[45].server[0] totalJobs 14082
scalar FogSequentialForward.fog[45].server[0] droppedJobsQueue 886
scalar FogSequentialForward.fog[45].server[0] droppedJobsTimout 0
scalar FogSequentialForward.fog[45].server[0] droppedJobsSLA 8378
scalar FogSequentialForward.fog[45].server[0] droppedJobsTotal 9264
scalar FogSequentialForward.fog[46].dispatcher localJobs 14070
scalar FogSequentialForward.fog[46].dispatcher internalJobs 14329
scalar FogSequentialForward.fog[46].dispatcher externalJobs 3647577
scalar FogSequentialForward.fog[46].dispatcher remoteJobs 3647531
scalar FogSequentialForward.fog[46].dispatcher probeQueries 0
scalar FogSequentialForward.fog[46].dispatcher probeAnswers 0
scalar FogSequentialForward.fog[46].dispatcher droppedJobsSLA 305
scalar FogSequentialForward.fog[46].dispatcher jobs_class_1 3661906
scalar FogSequentialForward.fog[46].dispatcher remoteJobs_class_1 3647531
scalar FogSequentialForward.fog[46].dispatcher localJobs_class_1 14070
scalar FogSequentialForward.fog[46].dispatcher droppedJobsSLA_class_1 305
scalar FogSequentialForward.fog[46].server[0] rho 0.99999994039536
scalar FogSequentialForward.fog[46].server[0] congestionRatio 0
scalar FogSequentialForward.fog[46].server[0] totalJobs 14070
scalar FogSequentialForward.fog[46].server[0] droppedJobsQueue 885
scalar FogSequentialForward.fog[46].server[0] droppedJobsTimout 0
scalar FogSequentialForward.fog[46].server[0] droppedJobsSLA 8383
scalar FogSequentialForward.fog[46].server[0] droppedJobsTotal 9268
scalar FogSequentialForward.fog[47].dispatcher localJobs 14061
scalar FogSequentialForward.fog[47].dispatcher internalJobs 14226
scalar FogSequentialForward.fog[47].dispatcher externalJobs 3648535
scalar FogSequentialForward.fog[47].dispatcher remoteJobs 3648397
scalar FogSequentialForward.fog[47].dispatcher probeQueries 0
scalar FogSequentialForward.fog[47].dispatcher probeAnswers 0
scalar FogSequentialForward.fog[47].dispatcher droppedJobsSLA 303
scalar FogSequentialForward.fog[47].dispatcher jobs_class_1 3662761
scalar FogSequentialForward.fog[47].dispatcher remoteJobs_class_1 3648397
scalar FogSequentialForward.fog[47].dispatcher localJobs_class_1 14061
scalar FogSequentialForward.fog[47].dispatcher droppedJobsSLA_class_1 303
scalar FogSequentialForward.fog[47].server[0] rho 0.99999976158142
scalar FogSequentialForward.fog[47].server[0] congestionRatio 0
scalar FogSequentialForward.fog[47].server[0] totalJobs 14061
scalar FogSequentialForward.fog[47].server[0] droppedJobsQueue 883
scalar FogSequentialForward.fog[47].server[0] droppedJobsTimout 0
scalar FogSequentialForward.fog[47].server[0] droppedJobsSLA 8405
scalar FogSequentialForward.fog[47].server[0] droppedJobsTotal 9288
scalar FogSequentialForward.fog[48].dispatcher localJobs 14123
scalar FogSequentialForward.fog[48].dispatcher internalJobs 14437
scalar FogSequentialForward.fog[48].dispatcher externalJobs 3645500
scalar FogSequentialForward.fog[48].dispatcher remoteJobs 3645499
scalar FogSequentialForward.fog[48].dispatcher probeQueries 0
scalar FogSequentialForward.fog[48].dispatcher probeAnswers 0
scalar FogSequentialForward.fog[48].dispatcher droppedJobsSLA 315
scalar FogSequentialForward.fog[48].dispatcher jobs_class_1 3659937
scalar FogSequentialForward.fog[48].dispatcher remoteJobs_class_1 3645499
scalar FogSequentialForward.fog[48].dispatcher localJobs_class_1 14123
scalar FogSequentialForward.fog[48].dispatcher droppedJobsSLA_class_1 315
scalar FogSequentialForward.fog[48].server[0] rho 1
scalar FogSequentialForward.fog[48].server[0] congestionRatio 0
scalar FogSequentialForward.fog[48].server[0] totalJobs 14123
scalar FogSequentialForward.fog[48].server[0] droppedJobsQueue 887
scalar FogSequentialForward.fog[48].server[0] droppedJobsTimout 0
scalar FogSequentialForward.fog[48].server[0] droppedJobsSLA 8428
scalar FogSequentialForward.fog[48].server[0] droppedJobsTotal 9315
scalar FogSequentialForward.fog[49].dispatcher localJobs 14130
scalar FogSequentialForward.fog[49].dispatcher internalJobs 14277
scalar FogSequentialForward.fog[49].dispatcher externalJobs 3650097
scalar FogSequentialForward.fog[49].dispatcher remoteJobs 3649930
scalar FogSequentialForward.fog[49].dispatcher probeQueries 0
scalar FogSequentialForward.fog[49].dispatcher probeAnswers 0
scalar FogSequentialForward.fog[49].dispatcher droppedJobsSLA 314
scalar FogSequentialForward.fog[49].dispatcher jobs_class_1 3664374
scalar FogSequentialForward.fog[49].dispatcher remoteJobs_class_1 3649930
scalar FogSequentialForward.fog[49].dispatcher localJobs_class_1 14130
scalar FogSequentialForward.fog[49].dispatcher droppedJobsSLA_class_1 314
scalar FogSequentialForward.fog[49].server[0] rho 0.99995601177216
scalar FogSequentialForward.fog[49].server[0] congestionRatio 0
scalar FogSequentialForward.fog[49].server[0] totalJobs 14130
scalar FogSequentialForward.fog[49].server[0] droppedJobsQueue 886
scalar FogSequentialForward.fog[49].server[0] droppedJobsTimout 0
scalar FogSequentialForward.fog[49].server[0] droppedJobsSLA 8431
scalar FogSequentialForward.fog[49].server[0] droppedJobsTotal 9317
scalar FogSequentialForward.fog[50].dispatcher localJobs 14065
scalar FogSequentialForward.fog[50].dispatcher internalJobs 14367
scalar FogSequentialForward.fog[50].dispatcher externalJobs 3647845
scalar FogSequentialForward.fog[50].dispatcher remoteJobs 3647853
scalar FogSequentialForward.fog[50].dispatcher probeQueries 0
scalar FogSequentialForward.fog[50].dispatcher probeAnswers 0
scalar FogSequentialForward.fog[50].dispatcher droppedJobsSLA 294
scalar FogSequentialForward.fog[50].dispatcher jobs_class_1 3662212
scalar FogSequentialForward.fog[50].dispatcher remoteJobs_class_1 3647853
scalar FogSequentialForward.fog[50].dispatcher localJobs_class_1 14065
scalar FogSequentialForward.fog[50].dispatcher droppedJobsSLA_class_1 294
scalar FogSequentialForward.fog[50].server[0] rho 1
scalar FogSequentialForward.fog[50].server[0] congestionRatio 0
scalar FogSequentialForward.fog[50].server[0] totalJobs 14065
scalar FogSequentialForward.fog[50].server[0] droppedJobsQueue 883
scalar FogSequentialForward.fog[50].server[0] droppedJobsTimout 0
scalar FogSequentialForward.fog[50].server[0] droppedJobsSLA 8330
scalar FogSequentialForward.fog[50].server[0] droppedJobsTotal 9213
scalar FogSequentialForward.fog[51].dispatcher localJobs 14131
scalar FogSequentialForward.fog[51].dispatcher internalJobs 14566
scalar FogSequentialForward.fog[51].dispatcher externalJobs 3651004
scalar FogSequentialForward.fog[51].dispatcher remoteJobs 3651132
scalar FogSequentialForward.fog[51].dispatcher probeQueries 0
scalar FogSequentialForward.fog[51].dispatcher probeAnswers 0
scalar FogSequentialForward.fog[51].dispatcher droppedJobsSLA 307
scalar FogSequentialForward.fog[51].dispatcher jobs_class_1 3665570
scalar FogSequentialForward.fog[51].dispatcher remoteJobs_class_1 3651132
scalar FogSequentialForward.fog[51].dispatcher localJobs_class_1 14131
scalar FogSequentialForward.fog[51].dispatcher droppedJobsSLA_class_1 307
scalar FogSequentialForward.fog[51].server[0] rho 0.99982190132141
scalar FogSequentialForward.fog[51].server[0] congestionRatio 0
scalar FogSequentialForward.fog[51].server[0] totalJobs 14131
scalar FogSequentialForward.fog[51].server[0] droppedJobsQueue 884
scalar FogSequentialForward.fog[51].server[0] droppedJobsTimout 0
scalar FogSequentialForward.fog[51].server[0] droppedJobsSLA 8420
scalar FogSequentialForward.fog[51].server[0] droppedJobsTotal 9304
scalar FogSequentialForward.fog[52].dispatcher localJobs 14133
scalar FogSequentialForward.fog[52].dispatcher internalJobs 14350
scalar FogSequentialForward.fog[52].dispatcher externalJobs 3647435
scalar FogSequentialForward.fog[52].dispatcher remoteJobs 3647354
scalar FogSequentialForward.fog[52].dispatcher probeQueries 0
scalar FogSequentialForward.fog[52].dispatcher probeAnswers 0
scalar FogSequentialForward.fog[52].dispatcher droppedJobsSLA 298
scalar FogSequentialForward.fog[52].dispatcher jobs_class_1 3661785
scalar FogSequentialForward.fog[52].dispatcher remoteJobs_class_1 3647354
scalar FogSequentialForward.fog[52].dispatcher localJobs_class_1 14133
scalar FogSequentialForward.fog[52].dispatcher droppedJobsSLA_class_1 298
scalar FogSequentialForward.fog[52].server[0] rho 1
scalar FogSequentialForward.fog[52].server[0] congestionRatio 0
scalar FogSequentialForward.fog[52].server[0] totalJobs 14133
scalar FogSequentialForward.fog[52].server[0] droppedJobsQueue 886
scalar FogSequentialForward.fog[52].server[0] droppedJobsTimout 0
scalar FogSequentialForward.fog[52].server[0] droppedJobsSLA 8420
scalar FogSequentialForward.fog[52].server[0] droppedJobsTotal 9306
scalar FogSequentialForward.fog[53].dispatcher localJobs 14072
scalar FogSequentialForward.fog[53].dispatcher internalJobs 14467
scalar FogSequentialForward.fog[53].dispatcher externalJobs 3647557
scalar FogSequentialForward.fog[53].dispatcher remoteJobs 3647641
scalar FogSequentialForward.fog[53].dispatcher probeQueries 0
scalar FogSequentialForward.fog[53].dispatcher probeAnswers 0
scalar FogSequentialForward.fog[53].dispatcher droppedJobsSLA 311
scalar FogSequentialForward.fog[53].dispatcher jobs_class_1 3662024
scalar FogSequentialForward.fog[53].dispatcher remoteJobs_class_1 3647641
scalar FogSequentialForward.fog[53].dispatcher localJobs_class_1 14072
scalar FogSequentialForward.fog[53].dispatcher droppedJobsSLA_class_1 311
scalar FogSequentialForward.fog[53].server[0] rho 0.99999982118607
scalar FogSequentialForward.fog[53].server[0] congestionRatio 0
scalar FogSequentialForward.fog[53].server[0] totalJobs 14072
scalar FogSequentialForward.fog[53].server[0] droppedJobsQueue 881
scalar FogSequentialForward.fog[53].server[0] droppedJobsTimout 0
scalar FogSequentialForward.fog[53].server[0] droppedJobsSLA 8350
scalar FogSequentialForward.fog[53].server[0] droppedJobsTotal 9231
scalar FogSequentialForward.fog[54].dispatcher localJobs 14146
scalar FogSequentialForward.fog[54].dispatcher internalJobs 14387
scalar FogSequentialForward.fog[54].dispatcher externalJobs 3647632
scalar FogSequentialForward.fog[54].dispatcher remoteJobs 3647590
scalar FogSequentialForward.fog[54].dispatcher probeQueries 0
scalar FogSequentialForward.fog[54].dispatcher probeAnswers 0
scalar FogSequentialForward.fog[54].dispatcher droppedJobsSLA 283
scalar FogSequentialForward.fog[54].dispatcher jobs_class_1 3662019
scalar FogSequentialForward.fog[54].dispatcher remoteJobs_class_1 3647590
scalar FogSequentialForward.fog[54].dispatcher localJobs_class_1 14146
scalar FogSequentialForward.fog[54].dispatcher droppedJobsSLA_class_1 283
scalar FogSequentialForward.fog[54].server[0] rho 1
scalar FogSequentialForward.fog[54].server[0] congestionRatio 0
scalar FogSequentialForward.fog[54].server[0] totalJobs 14146
scalar FogSequentialForward.fog[54].server[0] droppedJobsQueue 884
scalar FogSequentialForward.fog[54].server[0] droppedJobsTimout 0
scalar FogSequentialForward.fog[54].server[0] droppedJobsSLA 8458
scalar FogSequentialForward.fog[54].server[0] droppedJobsTotal 9342
scalar FogSequentialForward.fog[55].dispatcher localJobs 14061
scalar FogSequentialForward.fog[55].dispatcher internalJobs 14581
scalar FogSequentialForward.fog[55].dispatcher externalJobs 3649598
scalar FogSequentialForward.fog[55].dispatcher remoteJobs 3649822
scalar FogSequentialForward.fog[55].dispatcher probeQueries 0
scalar FogSequentialForward.fog[55].dispatcher probeAnswers 0
scalar FogSequentialForward.fog[55].dispatcher droppedJobsSLA 296
scalar FogSequentialForward.fog[55].dispatcher jobs_class_1 3664179
scalar FogSequentialForward.fog[55].dispatcher remoteJobs_class_1 3649822
scalar FogSequentialForward.fog[55].dispatcher localJobs_class_1 14061
scalar FogSequentialForward.fog[55].dispatcher droppedJobsSLA_class_1 296
scalar FogSequentialForward.fog[55].server[0] rho 0.99996441602707
scalar FogSequentialForward.fog[55].server[0] congestionRatio 0
scalar FogSequentialForward.fog[55].server[0] totalJobs 14061
scalar FogSequentialForward.fog[55].server[0] droppedJobsQueue 882
scalar FogSequentialForward.fog[55].server[0] droppedJobsTimout 0
scalar FogSequentialForward.fog[55].server[0] droppedJobsSLA 8346
scalar FogSequentialForward.fog[55].server[0] droppedJobsTotal 9228
scalar FogSequentialForward.fog[56].dispatcher localJobs 14161
scalar FogSequentialForward.fog[56].dispatcher internalJobs 14398
scalar FogSequentialForward.fog[56].dispatcher externalJobs 3646879
scalar FogSequentialForward.fog[56].dispatcher remoteJobs 3646810
scalar FogSequentialForward.fog[56].dispatcher probeQueries 0
scalar FogSequentialForward.fog[56].dispatcher probeAnswers 0
scalar FogSequentialForward.fog[56].dispatcher droppedJobsSLA 306
scalar FogSequentialForward.fog[56].dispatcher jobs_class_1 3661277
scalar FogSequentialForward.fog[56].dispatcher remoteJobs_class_1 3646810
scalar FogSequentialForward.fog[56].dispatcher localJobs_class_1 14161
scalar FogSequentialForward.fog[56].dispatcher droppedJobsSLA_class_1 306
scalar FogSequentialForward.fog[56].server[0] rho 0.99999994039536
scalar FogSequentialForward.fog[56].server[0] congestionRatio 0
scalar FogSequentialForward.fog[56].server[0] totalJobs 14161
scalar FogSequentialForward.fog[56].server[0] droppedJobsQueue 886
scalar FogSequentialForward.fog[56].server[0] droppedJobsTimout 0
scalar FogSequentialForward.fog[56].server[0] droppedJobsSLA 8450
scalar FogSequentialForward.fog[56].server[0] droppedJobsTotal 9336
scalar FogSequentialForward.fog[57].dispatcher localJobs 14097
scalar FogSequentialForward.fog[57].dispatcher internalJobs 14383
scalar FogSequentialForward.fog[57].dispatcher externalJobs 3646762
scalar FogSequentialForward.fog[57].dispatcher remoteJobs 3646712
scalar FogSequentialForward.fog[57].dispatcher probeQueries 0
scalar FogSequentialForward.fog[57].dispatcher probeAnswers 0
scalar FogSequentialForward.fog[57].dispatcher droppedJobsSLA 336
scalar FogSequentialForward.fog[57].dispatcher jobs_class_1 3661145
scalar FogSequentialForward.fog[57].dispatcher remoteJobs_class_1 3646712
scalar FogSequentialForward.fog[57].dispatcher localJobs_class_1 14097
scalar FogSequentialForward.fog[57].dispatcher droppedJobsSLA_class_1 336
scalar FogSequentialForward.fog[57].server[0] rho 1
scalar FogSequentialForward.fog[57].server[0] congestionRatio 0
scalar FogSequentialForward.fog[57].server[0] totalJobs 14097
scalar FogSequentialForward.fog[57].server[0] droppedJobsQueue 880
scalar FogSequentialForward.fog[57].server[0] droppedJobsTimout 0
scalar FogSequentialForward.fog[57].server[0] droppedJobsSLA 8394
scalar FogSequentialForward.fog[57].server[0] droppedJobsTotal 9274
scalar FogSequentialForward.fog[58].dispatcher localJobs 14064
scalar FogSequentialForward.fog[58].dispatcher internalJobs 14267
scalar FogSequentialForward.fog[58].dispatcher externalJobs 3649721
scalar FogSequentialForward.fog[58].dispatcher remoteJobs 3649625
scalar FogSequentialForward.fog[58].dispatcher probeQueries 0
scalar FogSequentialForward.fog[58].dispatcher probeAnswers 0
scalar FogSequentialForward.fog[58].dispatcher droppedJobsSLA 299
scalar FogSequentialForward.fog[58].dispatcher jobs_class_1 3663988
scalar FogSequentialForward.fog[58].dispatcher remoteJobs_class_1 3649625
scalar FogSequentialForward.fog[58].dispatcher localJobs_class_1 14064
scalar FogSequentialForward.fog[58].dispatcher droppedJobsSLA_class_1 299
scalar FogSequentialForward.fog[58].server[0] rho 1
scalar FogSequentialForward.fog[58].server[0] congestionRatio 0
scalar FogSequentialForward.fog[58].server[0] totalJobs 14064
scalar FogSequentialForward.fog[58].server[0] droppedJobsQueue 880
scalar FogSequentialForward.fog[58].server[0] droppedJobsTimout 0
scalar FogSequentialForward.fog[58].server[0] droppedJobsSLA 8335
scalar FogSequentialForward.fog[58].server[0] droppedJobsTotal 9215
scalar FogSequentialForward.fog[59].dispatcher localJobs 14079
scalar FogSequentialForward.fog[59].dispatcher internalJobs 14462
scalar FogSequentialForward.fog[59].dispatcher externalJobs 3646920
scalar FogSequentialForward.fog[59].dispatcher remoteJobs 3646982
scalar FogSequentialForward.fog[59].dispatcher probeQueries 0
scalar FogSequentialForward.fog[59].dispatcher probeAnswers 0
scalar FogSequentialForward.fog[59].dispatcher droppedJobsSLA 321
scalar FogSequentialForward.fog[59].dispatcher jobs_class_1 3661382
scalar FogSequentialForward.fog[59].dispatcher remoteJobs_class_1 3646982
scalar FogSequentialForward.fog[59].dispatcher localJobs_class_1 14079
scalar FogSequentialForward.fog[59].dispatcher droppedJobsSLA_class_1 321
scalar FogSequentialForward.fog[59].server[0] rho 0.99996703863144
scalar FogSequentialForward.fog[59].server[0] congestionRatio 0
scalar FogSequentialForward.fog[59].server[0] totalJobs 14079
scalar FogSequentialForward.fog[59].server[0] droppedJobsQueue 878
scalar FogSequentialForward.fog[59].server[0] droppedJobsTimout 0
scalar FogSequentialForward.fog[59].server[0] droppedJobsSLA 8369
scalar FogSequentialForward.fog[59].server[0] droppedJobsTotal 9247
scalar FogSequentialForward.fog[60].dispatcher localJobs 14141
scalar FogSequentialForward.fog[60].dispatcher internalJobs 14369
scalar FogSequentialForward.fog[60].dispatcher externalJobs 3648041
scalar FogSequentialForward.fog[60].dispatcher remoteJobs 3647963
scalar FogSequentialForward.fog[60].dispatcher probeQueries 0
scalar FogSequentialForward.fog[60].dispatcher probeAnswers 0
scalar FogSequentialForward.fog[60].dispatcher droppedJobsSLA 306
scalar FogSequentialForward.fog[60].dispatcher jobs_class_1 3662410
scalar FogSequentialForward.fog[60].dispatcher remoteJobs_class_1 3647963
scalar FogSequentialForward.fog[60].dispatcher localJobs_class_1 14141
scalar FogSequentialForward.fog[60].dispatcher droppedJobsSLA_class_1 306
scalar FogSequentialForward.fog[60].server[0] rho 1
scalar FogSequentialForward.fog[60].server[0] congestionRatio 0
scalar FogSequentialForward.fog[60].server[0] totalJobs 14141
scalar FogSequentialForward.fog[60].server[0] droppedJobsQueue 885
scalar FogSequentialForward.fog[60].server[0] droppedJobsTimout 0
scalar FogSequentialForward.fog[60].server[0] droppedJobsSLA 8390
scalar FogSequentialForward.fog[60].server[0] droppedJobsTotal 9275
scalar FogSequentialForward.fog[61].dispatcher localJobs 14050
scalar FogSequentialForward.fog[61].dispatcher internalJobs 14266
scalar FogSequentialForward.fog[61].dispatcher externalJobs 3648938
scalar FogSequentialForward.fog[61].dispatcher remoteJobs 3648805
scalar FogSequentialForward.fog[61].dispatcher probeQueries 0
scalar FogSequentialForward.fog[61].dispatcher probeAnswers 0
scalar FogSequentialForward.fog[61].dispatcher droppedJobsSLA 349
scalar FogSequentialForward.fog[61].dispatcher jobs_class_1 3663204
scalar FogSequentialForward.fog[61].dispatcher remoteJobs_class_1 3648805
scalar FogSequentialForward.fog[61].dispatcher localJobs_class_1 14050
scalar FogSequentialForward.fog[61].dispatcher droppedJobsSLA_class_1 349
scalar FogSequentialForward.fog[61].server[0] rho 0.99997025728226
scalar FogSequentialForward.fog[61].server[0] congestionRatio 0
scalar FogSequentialForward.fog[61].server[0] totalJobs 14050
scalar FogSequentialForward.fog[61].server[0] droppedJobsQueue 880
scalar FogSequentialForward.fog[61].server[0] droppedJobsTimout 0
scalar FogSequentialForward.fog[61].server[0] droppedJobsSLA 8329
scalar FogSequentialForward.fog[61].server[0] droppedJobsTotal 9209
scalar FogSequentialForward.fog[62].dispatcher localJobs 14064
scalar FogSequentialForward.fog[62].dispatcher internalJobs 14330
scalar FogSequentialForward.fog[62].dispatcher externalJobs 3649237
scalar FogSequentialForward.fog[62].dispatcher remoteJobs 3649203
scalar FogSequentialForward.fog[62].dispatcher probeQueries 0
scalar FogSequentialForward.fog[62].dispatcher probeAnswers 0
scalar FogSequentialForward.fog[62].dispatcher droppedJobsSLA 300
scalar FogSequentialForward.fog[62].dispatcher jobs_class_1 3663567
scalar FogSequentialForward.fog[62].dispatcher remoteJobs_class_1 3649203
scalar FogSequentialForward.fog[62].dispatcher localJobs_class_1 14064
scalar FogSequentialForward.fog[62].dispatcher droppedJobsSLA_class_1 300
scalar FogSequentialForward.fog[62].server[0] rho 1
scalar FogSequentialForward.fog[62].server[0] congestionRatio 0
scalar FogSequentialForward.fog[62].server[0] totalJobs 14064
scalar FogSequentialForward.fog[62].server[0] droppedJobsQueue 881
scalar FogSequentialForward.fog[62].server[0] droppedJobsTimout 0
scalar FogSequentialForward.fog[62].server[0] droppedJobsSLA 8415
scalar FogSequentialForward.fog[62].server[0] droppedJobsTotal 9296
scalar FogSequentialForward.fog[63].dispatcher localJobs 14119
scalar FogSequentialForward.fog[63].dispatcher internalJobs 14529
scalar FogSequentialForward.fog[63].dispatcher externalJobs 3648962
scalar FogSequentialForward.fog[63].dispatcher remoteJobs 3649057
scalar FogSequentialForward.fog[63].dispatcher probeQueries 0
scalar FogSequentialForward.fog[63].dispatcher probeAnswers 0
scalar FogSequentialForward.fog[63].dispatcher droppedJobsSLA 315
scalar FogSequentialForward.fog[63].dispatcher jobs_class_1 3663491
scalar FogSequentialForward.fog[63].dispatcher remoteJobs_class_1 3649057
scalar FogSequentialForward.fog[63].dispatcher localJobs_class_1 14119
scalar FogSequentialForward.fog[63].dispatcher droppedJobsSLA_class_1 315
scalar FogSequentialForward.fog[63].server[0] rho 0.99991750717163
scalar FogSequentialForward.fog[63].server[0] congestionRatio 0
scalar FogSequentialForward.fog[63].server[0] totalJobs 14119
scalar FogSequentialForward.fog[63].server[0] droppedJobsQueue 881
scalar FogSequentialForward.fog[63].server[0] droppedJobsTimout 0
scalar FogSequentialForward.fog[63].server[0] droppedJobsSLA 8382
scalar FogSequentialForward.fog[63].server[0] droppedJobsTotal 9263
scalar FogSequentialForward.fog[64].dispatcher localJobs 14068
scalar FogSequentialForward.fog[64].dispatcher internalJobs 14296
scalar FogSequentialForward.fog[64].dispatcher externalJobs 3650287
scalar FogSequentialForward.fog[64].dispatcher remoteJobs 3650218
scalar FogSequentialForward.fog[64].dispatcher probeQueries 0
scalar FogSequentialForward.fog[64].dispatcher probeAnswers 0
scalar FogSequentialForward.fog[64].dispatcher droppedJobsSLA 297
scalar FogSequentialForward.fog[64].dispatcher jobs_class_1 3664583
scalar FogSequentialForward.fog[64].dispatcher remoteJobs_class_1 3650218
scalar FogSequentialForward.fog[64].dispatcher localJobs_class_1 14068
scalar FogSequentialForward.fog[64].dispatcher droppedJobsSLA_class_1 297
scalar FogSequentialForward.fog[64].server[0] rho 1
scalar FogSequentialForward.fog[64].server[0] congestionRatio 0
scalar FogSequentialForward.fog[64].server[0] totalJobs 14068
scalar FogSequentialForward.fog[64].server[0] droppedJobsQueue 881
scalar FogSequentialForward.fog[64].server[0] droppedJobsTimout 0
scalar FogSequentialForward.fog[64].server[0] droppedJobsSLA 8401
scalar FogSequentialForward.fog[64].server[0] droppedJobsTotal 9282
scalar FogSequentialForward.fog[65].dispatcher localJobs 14110
scalar FogSequentialForward.fog[65].dispatcher internalJobs 14427
scalar FogSequentialForward.fog[65].dispatcher externalJobs 3644861
scalar FogSequentialForward.fog[65].dispatcher remoteJobs 3644849
scalar FogSequentialForward.fog[65].dispatcher probeQueries 0
scalar FogSequentialForward.fog[65].dispatcher probeAnswers 0
scalar FogSequentialForward.fog[65].dispatcher droppedJobsSLA 329
scalar FogSequentialForward.fog[65].dispatcher jobs_class_1 3659288
scalar FogSequentialForward.fog[65].dispatcher remoteJobs_class_1 3644849
scalar FogSequentialForward.fog[65].dispatcher localJobs_class_1 14110
scalar FogSequentialForward.fog[65].dispatcher droppedJobsSLA_class_1 329
scalar FogSequentialForward.fog[65].server[0] rho 0.99999940395355
scalar FogSequentialForward.fog[65].server[0] congestionRatio 0
scalar FogSequentialForward.fog[65].server[0] totalJobs 14110
scalar FogSequentialForward.fog[65].server[0] droppedJobsQueue 881
scalar FogSequentialForward.fog[65].server[0] droppedJobsTimout 0
scalar FogSequentialForward.fog[65].server[0] droppedJobsSLA 8427
scalar FogSequentialForward.fog[65].server[0] droppedJobsTotal 9308
scalar FogSequentialForward.fog[66].dispatcher localJobs 14077
scalar FogSequentialForward.fog[66].dispatcher internalJobs 14487
scalar FogSequentialForward.fog[66].dispatcher externalJobs 3650092
[...]
scalar FogSequentialForward.fog[84].dispatcher remoteJobs 3646056
scalar FogSequentialForward.fog[84].dispatcher probeQueries 0
scalar FogSequentialForward.fog[84].dispatcher probeAnswers 0
scalar FogSequentialForward.fog[84].dispatcher droppedJobsSLA 300
scalar FogSequentialForward.fog[84].dispatcher jobs_class_1 3660426
scalar FogSequentialForward.fog[84].dispatcher remoteJobs_class_1 3646056
scalar FogSequentialForward.fog[84].dispatcher localJobs_class_1 14070
scalar FogSequentialForward.fog[84].dispatcher droppedJobsSLA_class_1 300
scalar FogSequentialForward.fog[84].server[0] rho 0.99999970197678
scalar FogSequentialForward.fog[84].server[0] congestionRatio 0
scalar FogSequentialForward.fog[84].server[0] totalJobs 14070
scalar FogSequentialForward.fog[84].server[0] droppedJobsQueue 880
scalar FogSequentialForward.fog[84].server[0] droppedJobsTimout 0
scalar FogSequentialForward.fog[84].server[0] droppedJobsSLA 8410
scalar FogSequentialForward.fog[84].server[0] droppedJobsTotal 9290
scalar FogSequentialForward.fog[85].dispatcher localJobs 14065
scalar FogSequentialForward.fog[85].dispatcher internalJobs 14260
scalar FogSequentialForward.fog[85].dispatcher externalJobs 3644493
scalar FogSequentialForward.fog[85].dispatcher remoteJobs 3644395
scalar FogSequentialForward.fog[85].dispatcher probeQueries 0
scalar FogSequentialForward.fog[85].dispatcher probeAnswers 0
scalar FogSequentialForward.fog[85].dispatcher droppedJobsSLA 293
scalar FogSequentialForward.fog[85].dispatcher jobs_class_1 3658753
scalar FogSequentialForward.fog[85].dispatcher remoteJobs_class_1 3644395
scalar FogSequentialForward.fog[85].dispatcher localJobs_class_1 14065
scalar FogSequentialForward.fog[85].dispatcher droppedJobsSLA_class_1 293
scalar FogSequentialForward.fog[85].server[0] rho 0.99991053342819
scalar FogSequentialForward.fog[85].server[0] congestionRatio 0
scalar FogSequentialForward.fog[85].server[0] totalJobs 14065
scalar FogSequentialForward.fog[85].server[0] droppedJobsQueue 883
scalar FogSequentialForward.fog[85].server[0] droppedJobsTimout 0
scalar FogSequentialForward.fog[85].server[0] droppedJobsSLA 8359
scalar FogSequentialForward.fog[85].server[0] droppedJobsTotal 9242
scalar FogSequentialForward.fog[86].dispatcher localJobs 14097
scalar FogSequentialForward.fog[86].dispatcher internalJobs 14467
scalar FogSequentialForward.fog[86].dispatcher externalJobs 3648297
scalar FogSequentialForward.fog[86].dispatcher remoteJobs 3648346
scalar FogSequentialForward.fog[86].dispatcher probeQueries 0
scalar FogSequentialForward.fog[86].dispatcher probeAnswers 0
scalar FogSequentialForward.fog[86].dispatcher droppedJobsSLA 321
scalar FogSequentialForward.fog[86].dispatcher jobs_class_1 3662764
scalar FogSequentialForward.fog[86].dispatcher remoteJobs_class_1 3648346
scalar FogSequentialForward.fog[86].dispatcher localJobs_class_1 14097
scalar FogSequentialForward.fog[86].dispatcher droppedJobsSLA_class_1 321
scalar FogSequentialForward.fog[86].server[0] rho 1
scalar FogSequentialForward.fog[86].server[0] congestionRatio 0
scalar FogSequentialForward.fog[86].server[0] totalJobs 14097
scalar FogSequentialForward.fog[86].server[0] droppedJobsQueue 880
scalar FogSequentialForward.fog[86].server[0] droppedJobsTimout 0
scalar FogSequentialForward.fog[86].server[0] droppedJobsSLA 8366
scalar FogSequentialForward.fog[86].server[0] droppedJobsTotal 9246
scalar FogSequentialForward.fog[87].dispatcher localJobs 14081
scalar FogSequentialForward.fog[87].dispatcher internalJobs 14446
scalar FogSequentialForward.fog[87].dispatcher externalJobs 3649945
scalar FogSequentialForward.fog[87].dispatcher remoteJobs 3649998
scalar FogSequentialForward.fog[87].dispatcher probeQueries 0
scalar FogSequentialForward.fog[87].dispatcher probeAnswers 0
scalar FogSequentialForward.fog[87].dispatcher droppedJobsSLA 312
scalar FogSequentialForward.fog[87].dispatcher jobs_class_1 3664391
scalar FogSequentialForward.fog[87].dispatcher remoteJobs_class_1 3649998
scalar FogSequentialForward.fog[87].dispatcher localJobs_class_1 14081
scalar FogSequentialForward.fog[87].dispatcher droppedJobsSLA_class_1 312
scalar FogSequentialForward.fog[87].server[0] rho 0.99999952316284
scalar FogSequentialForward.fog[87].server[0] congestionRatio 0
scalar FogSequentialForward.fog[87].server[0] totalJobs 14081
scalar FogSequentialForward.fog[87].server[0] droppedJobsQueue 880
scalar FogSequentialForward.fog[87].server[0] droppedJobsTimout 0
scalar FogSequentialForward.fog[87].server[0] droppedJobsSLA 8393
scalar FogSequentialForward.fog[87].server[0] droppedJobsTotal 9273
scalar FogSequentialForward.fog[88].dispatcher localJobs 14084
scalar FogSequentialForward.fog[88].dispatcher internalJobs 14516
scalar FogSequentialForward.fog[88].dispatcher externalJobs 3646226
scalar FogSequentialForward.fog[88].dispatcher remoteJobs 3646358
scalar FogSequentialForward.fog[88].dispatcher probeQueries 0
scalar FogSequentialForward.fog[88].dispatcher probeAnswers 0
scalar FogSequentialForward.fog[88].dispatcher droppedJobsSLA 300
scalar FogSequentialForward.fog[88].dispatcher jobs_class_1 3660742
scalar FogSequentialForward.fog[88].dispatcher remoteJobs_class_1 3646358
scalar FogSequentialForward.fog[88].dispatcher localJobs_class_1 14084
scalar FogSequentialForward.fog[88].dispatcher droppedJobsSLA_class_1 300
scalar FogSequentialForward.fog[88].server[0] rho 0.99999994039536
scalar FogSequentialForward.fog[88].server[0] congestionRatio 0
scalar FogSequentialForward.fog[88].server[0] totalJobs 14084
scalar FogSequentialForward.fog[88].server[0] droppedJobsQueue 882
scalar FogSequentialForward.fog[88].server[0] droppedJobsTimout 0
scalar FogSequentialForward.fog[88].server[0] droppedJobsSLA 8418
scalar FogSequentialForward.fog[88].server[0] droppedJobsTotal 9300
scalar FogSequentialForward.fog[89].dispatcher localJobs 13996
scalar FogSequentialForward.fog[89].dispatcher internalJobs 14357
scalar FogSequentialForward.fog[89].dispatcher externalJobs 3645521
scalar FogSequentialForward.fog[89].dispatcher remoteJobs 3645562
scalar FogSequentialForward.fog[89].dispatcher probeQueries 0
scalar FogSequentialForward.fog[89].dispatcher probeAnswers 0
scalar FogSequentialForward.fog[89].dispatcher droppedJobsSLA 320
scalar FogSequentialForward.fog[89].dispatcher jobs_class_1 3659878
scalar FogSequentialForward.fog[89].dispatcher remoteJobs_class_1 3645562
scalar FogSequentialForward.fog[89].dispatcher localJobs_class_1 13996
scalar FogSequentialForward.fog[89].dispatcher droppedJobsSLA_class_1 320
scalar FogSequentialForward.fog[89].server[0] rho 1
scalar FogSequentialForward.fog[89].server[0] congestionRatio 0
scalar FogSequentialForward.fog[89].server[0] totalJobs 13996
scalar FogSequentialForward.fog[89].server[0] droppedJobsQueue 877
scalar FogSequentialForward.fog[89].server[0] droppedJobsTimout 0
scalar FogSequentialForward.fog[89].server[0] droppedJobsSLA 8316
scalar FogSequentialForward.fog[89].server[0] droppedJobsTotal 9193
scalar FogSequentialForward.fog[90].dispatcher localJobs 14140
scalar FogSequentialForward.fog[90].dispatcher internalJobs 14270
scalar FogSequentialForward.fog[90].dispatcher externalJobs 3648798
scalar FogSequentialForward.fog[90].dispatcher remoteJobs 3648630
scalar FogSequentialForward.fog[90].dispatcher probeQueries 0
scalar FogSequentialForward.fog[90].dispatcher probeAnswers 0
scalar FogSequentialForward.fog[90].dispatcher droppedJobsSLA 298
scalar FogSequentialForward.fog[90].dispatcher jobs_class_1 3663068
scalar FogSequentialForward.fog[90].dispatcher remoteJobs_class_1 3648630
scalar FogSequentialForward.fog[90].dispatcher localJobs_class_1 14140
scalar FogSequentialForward.fog[90].dispatcher droppedJobsSLA_class_1 298
scalar FogSequentialForward.fog[90].server[0] rho 0.9999988079071
scalar FogSequentialForward.fog[90].server[0] congestionRatio 0
scalar FogSequentialForward.fog[90].server[0] totalJobs 14140
scalar FogSequentialForward.fog[90].server[0] droppedJobsQueue 884
scalar FogSequentialForward.fog[90].server[0] droppedJobsTimout 0
scalar FogSequentialForward.fog[90].server[0] droppedJobsSLA 8406
scalar FogSequentialForward.fog[90].server[0] droppedJobsTotal 9290
scalar FogSequentialForward.fog[91].dispatcher localJobs 14073
scalar FogSequentialForward.fog[91].dispatcher internalJobs 14403
scalar FogSequentialForward.fog[91].dispatcher externalJobs 3648775
scalar FogSequentialForward.fog[91].dispatcher remoteJobs 3648815
scalar FogSequentialForward.fog[91].dispatcher probeQueries 0
scalar FogSequentialForward.fog[91].dispatcher probeAnswers 0
scalar FogSequentialForward.fog[91].dispatcher droppedJobsSLA 290
scalar FogSequentialForward.fog[91].dispatcher jobs_class_1 3663178
scalar FogSequentialForward.fog[91].dispatcher remoteJobs_class_1 3648815
scalar FogSequentialForward.fog[91].dispatcher localJobs_class_1 14073
scalar FogSequentialForward.fog[91].dispatcher droppedJobsSLA_class_1 290
scalar FogSequentialForward.fog[91].server[0] rho 0.99997198581696
scalar FogSequentialForward.fog[91].server[0] congestionRatio 0
scalar FogSequentialForward.fog[91].server[0] totalJobs 14073
scalar FogSequentialForward.fog[91].server[0] droppedJobsQueue 880
scalar FogSequentialForward.fog[91].server[0] droppedJobsTimout 0
scalar FogSequentialForward.fog[91].server[0] droppedJobsSLA 8349
scalar FogSequentialForward.fog[91].server[0] droppedJobsTotal 9229
scalar FogSequentialForward.fog[92].dispatcher localJobs 14109
scalar FogSequentialForward.fog[92].dispatcher internalJobs 14333
scalar FogSequentialForward.fog[92].dispatcher externalJobs 3650360
scalar FogSequentialForward.fog[92].dispatcher remoteJobs 3650298
scalar FogSequentialForward.fog[92].dispatcher probeQueries 0
scalar FogSequentialForward.fog[92].dispatcher probeAnswers 0
scalar FogSequentialForward.fog[92].dispatcher droppedJobsSLA 286
scalar FogSequentialForward.fog[92].dispatcher jobs_class_1 3664693
scalar FogSequentialForward.fog[92].dispatcher remoteJobs_class_1 3650298
scalar FogSequentialForward.fog[92].dispatcher localJobs_class_1 14109
scalar FogSequentialForward.fog[92].dispatcher droppedJobsSLA_class_1 286
scalar FogSequentialForward.fog[92].server[0] rho 0.99999952316284
scalar FogSequentialForward.fog[92].server[0] congestionRatio 0
scalar FogSequentialForward.fog[92].server[0] totalJobs 14109
scalar FogSequentialForward.fog[92].server[0] droppedJobsQueue 881
scalar FogSequentialForward.fog[92].server[0] droppedJobsTimout 0
scalar FogSequentialForward.fog[92].server[0] droppedJobsSLA 8373
scalar FogSequentialForward.fog[92].server[0] droppedJobsTotal 9254
scalar FogSequentialForward.fog[93].dispatcher localJobs 14030
scalar FogSequentialForward.fog[93].dispatcher internalJobs 14336
scalar FogSequentialForward.fog[93].dispatcher externalJobs 3652956
scalar FogSequentialForward.fog[93].dispatcher remoteJobs 3652958
scalar FogSequentialForward.fog[93].dispatcher probeQueries 0
scalar FogSequentialForward.fog[93].dispatcher probeAnswers 0
scalar FogSequentialForward.fog[93].dispatcher droppedJobsSLA 304
scalar FogSequentialForward.fog[93].dispatcher jobs_class_1 3667292
scalar FogSequentialForward.fog[93].dispatcher remoteJobs_class_1 3652958
scalar FogSequentialForward.fog[93].dispatcher localJobs_class_1 14030
scalar FogSequentialForward.fog[93].dispatcher droppedJobsSLA_class_1 304
scalar FogSequentialForward.fog[93].server[0] rho 1
scalar FogSequentialForward.fog[93].server[0] congestionRatio 0
scalar FogSequentialForward.fog[93].server[0] totalJobs 14030
scalar FogSequentialForward.fog[93].server[0] droppedJobsQueue 879
scalar FogSequentialForward.fog[93].server[0] droppedJobsTimout 0
scalar FogSequentialForward.fog[93].server[0] droppedJobsSLA 8349
scalar FogSequentialForward.fog[93].server[0] droppedJobsTotal 9228
scalar FogSequentialForward.fog[94].dispatcher localJobs 14115
scalar FogSequentialForward.fog[94].dispatcher internalJobs 14615
scalar FogSequentialForward.fog[94].dispatcher externalJobs 3648614
scalar FogSequentialForward.fog[94].dispatcher remoteJobs 3648807
scalar FogSequentialForward.fog[94].dispatcher probeQueries 0
scalar FogSequentialForward.fog[94].dispatcher probeAnswers 0
scalar FogSequentialForward.fog[94].dispatcher droppedJobsSLA 307
scalar FogSequentialForward.fog[94].dispatcher jobs_class_1 3663229
scalar FogSequentialForward.fog[94].dispatcher remoteJobs_class_1 3648807
scalar FogSequentialForward.fog[94].dispatcher localJobs_class_1 14115
scalar FogSequentialForward.fog[94].dispatcher droppedJobsSLA_class_1 307
scalar FogSequentialForward.fog[94].server[0] rho 0.99999970197678
scalar FogSequentialForward.fog[94].server[0] congestionRatio 0
scalar FogSequentialForward.fog[94].server[0] totalJobs 14115
scalar FogSequentialForward.fog[94].server[0] droppedJobsQueue 883
scalar FogSequentialForward.fog[94].server[0] droppedJobsTimout 0
scalar FogSequentialForward.fog[94].server[0] droppedJobsSLA 8429
scalar FogSequentialForward.fog[94].server[0] droppedJobsTotal 9312
scalar FogSequentialForward.fog[95].dispatcher localJobs 14087
scalar FogSequentialForward.fog[95].dispatcher internalJobs 14456
scalar FogSequentialForward.fog[95].dispatcher externalJobs 3650651
scalar FogSequentialForward.fog[95].dispatcher remoteJobs 3650749
scalar FogSequentialForward.fog[95].dispatcher probeQueries 0
scalar FogSequentialForward.fog[95].dispatcher probeAnswers 0
scalar FogSequentialForward.fog[95].dispatcher droppedJobsSLA 271
scalar FogSequentialForward.fog[95].dispatcher jobs_class_1 3665107
scalar FogSequentialForward.fog[95].dispatcher remoteJobs_class_1 3650749
scalar FogSequentialForward.fog[95].dispatcher localJobs_class_1 14087
scalar FogSequentialForward.fog[95].dispatcher droppedJobsSLA_class_1 271
scalar FogSequentialForward.fog[95].server[0] rho 1
scalar FogSequentialForward.fog[95].server[0] congestionRatio 0
scalar FogSequentialForward.fog[95].server[0] totalJobs 14087
scalar FogSequentialForward.fog[95].server[0] droppedJobsQueue 881
scalar FogSequentialForward.fog[95].server[0] droppedJobsTimout 0
scalar FogSequentialForward.fog[95].server[0] droppedJobsSLA 8376
scalar FogSequentialForward.fog[95].server[0] droppedJobsTotal 9257
scalar FogSequentialForward.fog[96].dispatcher localJobs 14127
scalar FogSequentialForward.fog[96].dispatcher internalJobs 14368
scalar FogSequentialForward.fog[96].dispatcher externalJobs 3649844
scalar FogSequentialForward.fog[96].dispatcher remoteJobs 3649806
scalar FogSequentialForward.fog[96].dispatcher probeQueries 0
scalar FogSequentialForward.fog[96].dispatcher probeAnswers 0
scalar FogSequentialForward.fog[96].dispatcher droppedJobsSLA 279
scalar FogSequentialForward.fog[96].dispatcher jobs_class_1 3664212
scalar FogSequentialForward.fog[96].dispatcher remoteJobs_class_1 3649806
scalar FogSequentialForward.fog[96].dispatcher localJobs_class_1 14127
scalar FogSequentialForward.fog[96].dispatcher droppedJobsSLA_class_1 279
scalar FogSequentialForward.fog[96].server[0] rho 1
scalar FogSequentialForward.fog[96].server[0] congestionRatio 0
scalar FogSequentialForward.fog[96].server[0] totalJobs 14127
scalar FogSequentialForward.fog[96].server[0] droppedJobsQueue 884
scalar FogSequentialForward.fog[96].server[0] droppedJobsTimout 0
scalar FogSequentialForward.fog[96].server[0] droppedJobsSLA 8461
scalar FogSequentialForward.fog[96].server[0] droppedJobsTotal 9345
scalar FogSequentialForward.fog[97].dispatcher localJobs 14095
scalar FogSequentialForward.fog[97].dispatcher internalJobs 14485
scalar FogSequentialForward.fog[97].dispatcher externalJobs 3649372
scalar FogSequentialForward.fog[97].dispatcher remoteJobs 3649460
scalar FogSequentialForward.fog[97].dispatcher probeQueries 0
scalar FogSequentialForward.fog[97].dispatcher probeAnswers 0
scalar FogSequentialForward.fog[97].dispatcher droppedJobsSLA 302
scalar FogSequentialForward.fog[97].dispatcher jobs_class_1 3663857
scalar FogSequentialForward.fog[97].dispatcher remoteJobs_class_1 3649460
scalar FogSequentialForward.fog[97].dispatcher localJobs_class_1 14095
scalar FogSequentialForward.fog[97].dispatcher droppedJobsSLA_class_1 302
scalar FogSequentialForward.fog[97].server[0] rho 0.99999976158142
scalar FogSequentialForward.fog[97].server[0] congestionRatio 0
scalar FogSequentialForward.fog[97].server[0] totalJobs 14095
scalar FogSequentialForward.fog[97].server[0] droppedJobsQueue 880
scalar FogSequentialForward.fog[97].server[0] droppedJobsTimout 0
scalar FogSequentialForward.fog[97].server[0] droppedJobsSLA 8407
scalar FogSequentialForward.fog[97].server[0] droppedJobsTotal 9287
scalar FogSequentialForward.fog[98].dispatcher localJobs 14053
scalar FogSequentialForward.fog[98].dispatcher internalJobs 14247
scalar FogSequentialForward.fog[98].dispatcher externalJobs 3650613
scalar FogSequentialForward.fog[98].dispatcher remoteJobs 3650498
scalar FogSequentialForward.fog[98].dispatcher probeQueries 0
scalar FogSequentialForward.fog[98].dispatcher probeAnswers 0
scalar FogSequentialForward.fog[98].dispatcher droppedJobsSLA 309
scalar FogSequentialForward.fog[98].dispatcher jobs_class_1 3664860
scalar FogSequentialForward.fog[98].dispatcher remoteJobs_class_1 3650498
scalar FogSequentialForward.fog[98].dispatcher localJobs_class_1 14053
scalar FogSequentialForward.fog[98].dispatcher droppedJobsSLA_class_1 309
scalar FogSequentialForward.fog[98].server[0] rho 1
scalar FogSequentialForward.fog[98].server[0] congestionRatio 0
scalar FogSequentialForward.fog[98].server[0] totalJobs 14053
scalar FogSequentialForward.fog[98].server[0] droppedJobsQueue 880
scalar FogSequentialForward.fog[98].server[0] droppedJobsTimout 0
scalar FogSequentialForward.fog[98].server[0] droppedJobsSLA 8312
scalar FogSequentialForward.fog[98].server[0] droppedJobsTotal 9192
scalar FogSequentialForward.fog[99].dispatcher localJobs 14070
scalar FogSequentialForward.fog[99].dispatcher internalJobs 14140
scalar FogSequentialForward.fog[99].dispatcher externalJobs 3653085
scalar FogSequentialForward.fog[99].dispatcher remoteJobs 3652828
scalar FogSequentialForward.fog[99].dispatcher probeQueries 0
scalar FogSequentialForward.fog[99].dispatcher probeAnswers 0
scalar FogSequentialForward.fog[99].dispatcher droppedJobsSLA 327
scalar FogSequentialForward.fog[99].dispatcher jobs_class_1 3667225
scalar FogSequentialForward.fog[99].dispatcher remoteJobs_class_1 3652828
scalar FogSequentialForward.fog[99].dispatcher localJobs_class_1 14070
scalar FogSequentialForward.fog[99].dispatcher droppedJobsSLA_class_1 327
scalar FogSequentialForward.fog[99].server[0] rho 1
scalar FogSequentialForward.fog[99].server[0] congestionRatio 0
scalar FogSequentialForward.fog[99].server[0] totalJobs 14070
scalar FogSequentialForward.fog[99].server[0] droppedJobsQueue 882
scalar FogSequentialForward.fog[99].server[0] droppedJobsTimout 0
scalar FogSequentialForward.fog[99].server[0] droppedJobsSLA 8376
scalar FogSequentialForward.fog[99].server[0] droppedJobsTotal 9258
scalar FogSequentialForward.sink avg_responseTime_1 12.529979307482
scalar FogSequentialForward.sink p90_responseTime_1 1.602160973566
scalar FogSequentialForward.sink med_responseTime_1 1.602160973566
scalar FogSequentialForward.sink avg_delayTime_1 0
scalar FogSequentialForward.sink p90_delayTime_1 0
scalar FogSequentialForward.sink med_delayTime_1 0
scalar FogSequentialForward.sink avg_queuingTime_1 8.5480565430471
scalar FogSequentialForward.sink p90_queuingTime_1 0
scalar FogSequentialForward.sink med_queuingTime_1 0
scalar FogSequentialForward.sink avg_serviceTime_1 1.672149908907
scalar FogSequentialForward.sink p90_serviceTime_1 1.509795012818
scalar FogSequentialForward.sink med_serviceTime_1 1.509795012818
scalar FogSequentialForward.sink avg_balancerTime_1 2.3097728555279
scalar FogSequentialForward.sink p90_balancerTime_1 0
scalar FogSequentialForward.sink med_balancerTime_1 0
scalar FogSequentialForward.sink avg_balancerCount_1 139.30975182804
scalar FogSequentialForward.sink p90_balancerCount_1 1
scalar FogSequentialForward.sink med_balancerCount_1 1

