version 2
run Fog-mul_001-rho_02-thr_9-1-20190712-20:06:55-2925
attr configname Fog-mul_001-rho_02-thr_9
attr datetime 20190712-20:06:55
attr experiment Fog-mul_001-rho_02-thr_9
attr inifile FogSequentialForward.ini
attr iterationvars ""
attr iterationvarsf ""
attr measurement ""
attr network FogSequentialForward
attr processid 2925
attr repetition 1
attr replication #1
attr resultdir results
attr runnumber 1
attr seedset 1
param FogSequentialForward.proctimeMul 0.01
param FogSequentialForward.rho 0.2
param FogSequentialForward.fog[*].dispatcher.thr 9
param FogSequentialForward.nSources 100
param FogSequentialForward.rho 0.9
param FogSequentialForward.proctimeMul 1.0
param FogSequentialForward.source[*].appId 1
param FogSequentialForward.source[*].realTime true
param FogSequentialForward.source[*].multiHop true
param FogSequentialForward.fog[*].nServers 1
param FogSequentialForward.fog[*].dispatcher.fanOut 1
param FogSequentialForward.fog[*].server[*].timeSlice -1s
param FogSequentialForward.fog[*].server[*].timeout -1s
param FogSequentialForward.fog[*].server[*].capacity 20
param FogSequentialForward.fog[*].server[*].fifo true
param FogSequentialForward.fog[*].server[*].maxServiceTime -1s
param FogSequentialForward.fog[*].dispatcher.thr 1

scalar FogSequentialForward.fog[0].dispatcher localJobs 360450
scalar FogSequentialForward.fog[0].dispatcher internalJobs 360436
scalar FogSequentialForward.fog[0].dispatcher externalJobs 44
scalar FogSequentialForward.fog[0].dispatcher remoteJobs 30
scalar FogSequentialForward.fog[0].dispatcher probeQueries 0
scalar FogSequentialForward.fog[0].dispatcher probeAnswers 0
scalar FogSequentialForward.fog[0].dispatcher droppedJobsSLA 0
scalar FogSequentialForward.fog[0].dispatcher jobs_class_1 360480
scalar FogSequentialForward.fog[0].dispatcher remoteJobs_class_1 30
scalar FogSequentialForward.fog[0].dispatcher localJobs_class_1 360450
scalar FogSequentialForward.fog[0].server[0] rho 0.55733168125153
scalar FogSequentialForward.fog[0].server[0] congestionRatio 0
scalar FogSequentialForward.fog[0].server[0] totalJobs 360450
scalar FogSequentialForward.fog[0].server[0] droppedJobsQueue 0
scalar FogSequentialForward.fog[0].server[0] droppedJobsTimout 0
scalar FogSequentialForward.fog[0].server[0] droppedJobsSLA 0
scalar FogSequentialForward.fog[0].server[0] droppedJobsTotal 0
scalar FogSequentialForward.fog[1].dispatcher localJobs 359937
scalar FogSequentialForward.fog[1].dispatcher internalJobs 359939
scalar FogSequentialForward.fog[1].dispatcher externalJobs 28
scalar FogSequentialForward.fog[1].dispatcher remoteJobs 30
scalar FogSequentialForward.fog[1].dispatcher probeQueries 0
scalar FogSequentialForward.fog[1].dispatcher probeAnswers 0
scalar FogSequentialForward.fog[1].dispatcher droppedJobsSLA 0
scalar FogSequentialForward.fog[1].dispatcher jobs_class_1 359967
scalar FogSequentialForward.fog[1].dispatcher remoteJobs_class_1 30
scalar FogSequentialForward.fog[1].dispatcher localJobs_class_1 359937
scalar FogSequentialForward.fog[1].server[0] rho 0.55656588077545
scalar FogSequentialForward.fog[1].server[0] congestionRatio 0
scalar FogSequentialForward.fog[1].server[0] totalJobs 359937
scalar FogSequentialForward.fog[1].server[0] droppedJobsQueue 0
scalar FogSequentialForward.fog[1].server[0] droppedJobsTimout 0
scalar FogSequentialForward.fog[1].server[0] droppedJobsSLA 0
scalar FogSequentialForward.fog[1].server[0] droppedJobsTotal 0
scalar FogSequentialForward.fog[2].dispatcher localJobs 363547
scalar FogSequentialForward.fog[2].dispatcher internalJobs 363550
scalar FogSequentialForward.fog[2].dispatcher externalJobs 31
scalar FogSequentialForward.fog[2].dispatcher remoteJobs 34
scalar FogSequentialForward.fog[2].dispatcher probeQueries 0
scalar FogSequentialForward.fog[2].dispatcher probeAnswers 0
scalar FogSequentialForward.fog[2].dispatcher droppedJobsSLA 0
scalar FogSequentialForward.fog[2].dispatcher jobs_class_1 363581
scalar FogSequentialForward.fog[2].dispatcher remoteJobs_class_1 34
scalar FogSequentialForward.fog[2].dispatcher localJobs_class_1 363547
scalar FogSequentialForward.fog[2].server[0] rho 0.56214320659637
scalar FogSequentialForward.fog[2].server[0] congestionRatio 0
scalar FogSequentialForward.fog[2].server[0] totalJobs 363547
scalar FogSequentialForward.fog[2].server[0] droppedJobsQueue 0
scalar FogSequentialForward.fog[2].server[0] droppedJobsTimout 0
scalar FogSequentialForward.fog[2].server[0] droppedJobsSLA 1
scalar FogSequentialForward.fog[2].server[0] droppedJobsTotal 1
scalar FogSequentialForward.fog[3].dispatcher localJobs 361128
scalar FogSequentialForward.fog[3].dispatcher internalJobs 361139
scalar FogSequentialForward.fog[3].dispatcher externalJobs 26
scalar FogSequentialForward.fog[3].dispatcher remoteJobs 37
scalar FogSequentialForward.fog[3].dispatcher probeQueries 0
scalar FogSequentialForward.fog[3].dispatcher probeAnswers 0
scalar FogSequentialForward.fog[3].dispatcher droppedJobsSLA 0
scalar FogSequentialForward.fog[3].dispatcher jobs_class_1 361165
scalar FogSequentialForward.fog[3].dispatcher remoteJobs_class_1 37
scalar FogSequentialForward.fog[3].dispatcher localJobs_class_1 361128
scalar FogSequentialForward.fog[3].server[0] rho 0.55840688943863
scalar FogSequentialForward.fog[3].server[0] congestionRatio 0
scalar FogSequentialForward.fog[3].server[0] totalJobs 361128
scalar FogSequentialForward.fog[3].server[0] droppedJobsQueue 0
scalar FogSequentialForward.fog[3].server[0] droppedJobsTimout 0
scalar FogSequentialForward.fog[3].server[0] droppedJobsSLA 0
scalar FogSequentialForward.fog[3].server[0] droppedJobsTotal 0
scalar FogSequentialForward.fog[4].dispatcher localJobs 360282
scalar FogSequentialForward.fog[4].dispatcher internalJobs 360297
scalar FogSequentialForward.fog[4].dispatcher externalJobs 36
scalar FogSequentialForward.fog[4].dispatcher remoteJobs 51
scalar FogSequentialForward.fog[4].dispatcher probeQueries 0
scalar FogSequentialForward.fog[4].dispatcher probeAnswers 0
scalar FogSequentialForward.fog[4].dispatcher droppedJobsSLA 0
scalar FogSequentialForward.fog[4].dispatcher jobs_class_1 360333
scalar FogSequentialForward.fog[4].dispatcher remoteJobs_class_1 51
scalar FogSequentialForward.fog[4].dispatcher localJobs_class_1 360282
scalar FogSequentialForward.fog[4].server[0] rho 0.55710136890411
scalar FogSequentialForward.fog[4].server[0] congestionRatio 0
scalar FogSequentialForward.fog[4].server[0] totalJobs 360282
scalar FogSequentialForward.fog[4].server[0] droppedJobsQueue 0
scalar FogSequentialForward.fog[4].server[0] droppedJobsTimout 0
scalar FogSequentialForward.fog[4].server[0] droppedJobsSLA 1
scalar FogSequentialForward.fog[4].server[0] droppedJobsTotal 1
scalar FogSequentialForward.fog[5].dispatcher localJobs 360808
scalar FogSequentialForward.fog[5].dispatcher internalJobs 360799
scalar FogSequentialForward.fog[5].dispatcher externalJobs 35
scalar FogSequentialForward.fog[5].dispatcher remoteJobs 26
scalar FogSequentialForward.fog[5].dispatcher probeQueries 0
scalar FogSequentialForward.fog[5].dispatcher probeAnswers 0
scalar FogSequentialForward.fog[5].dispatcher droppedJobsSLA 0
scalar FogSequentialForward.fog[5].dispatcher jobs_class_1 360834
scalar FogSequentialForward.fog[5].dispatcher remoteJobs_class_1 26
scalar FogSequentialForward.fog[5].dispatcher localJobs_class_1 360808
scalar FogSequentialForward.fog[5].server[0] rho 0.55793786048889
scalar FogSequentialForward.fog[5].server[0] congestionRatio 0
scalar FogSequentialForward.fog[5].server[0] totalJobs 360808
scalar FogSequentialForward.fog[5].server[0] droppedJobsQueue 0
scalar FogSequentialForward.fog[5].server[0] droppedJobsTimout 0
scalar FogSequentialForward.fog[5].server[0] droppedJobsSLA 2
scalar FogSequentialForward.fog[5].server[0] droppedJobsTotal 2
scalar FogSequentialForward.fog[6].dispatcher localJobs 362062
scalar FogSequentialForward.fog[6].dispatcher internalJobs 362065
scalar FogSequentialForward.fog[6].dispatcher externalJobs 24
scalar FogSequentialForward.fog[6].dispatcher remoteJobs 27
scalar FogSequentialForward.fog[6].dispatcher probeQueries 0
scalar FogSequentialForward.fog[6].dispatcher probeAnswers 0
scalar FogSequentialForward.fog[6].dispatcher droppedJobsSLA 0
scalar FogSequentialForward.fog[6].dispatcher jobs_class_1 362089
scalar FogSequentialForward.fog[6].dispatcher remoteJobs_class_1 27
scalar FogSequentialForward.fog[6].dispatcher localJobs_class_1 362062
scalar FogSequentialForward.fog[6].server[0] rho 0.55983978509903
scalar FogSequentialForward.fog[6].server[0] congestionRatio 0
scalar FogSequentialForward.fog[6].server[0] totalJobs 362062
scalar FogSequentialForward.fog[6].server[0] droppedJobsQueue 0
scalar FogSequentialForward.fog[6].server[0] droppedJobsTimout 0
scalar FogSequentialForward.fog[6].server[0] droppedJobsSLA 1
scalar FogSequentialForward.fog[6].server[0] droppedJobsTotal 1
scalar FogSequentialForward.fog[7].dispatcher localJobs 361600
scalar FogSequentialForward.fog[7].dispatcher internalJobs 361589
scalar FogSequentialForward.fog[7].dispatcher externalJobs 36
scalar FogSequentialForward.fog[7].dispatcher remoteJobs 25
scalar FogSequentialForward.fog[7].dispatcher probeQueries 0
scalar FogSequentialForward.fog[7].dispatcher probeAnswers 0
scalar FogSequentialForward.fog[7].dispatcher droppedJobsSLA 0
scalar FogSequentialForward.fog[7].dispatcher jobs_class_1 361625
scalar FogSequentialForward.fog[7].dispatcher remoteJobs_class_1 25
scalar FogSequentialForward.fog[7].dispatcher localJobs_class_1 361600
scalar FogSequentialForward.fog[7].server[0] rho 0.5591647028923
scalar FogSequentialForward.fog[7].server[0] congestionRatio 0
scalar FogSequentialForward.fog[7].server[0] totalJobs 361600
scalar FogSequentialForward.fog[7].server[0] droppedJobsQueue 0
scalar FogSequentialForward.fog[7].server[0] droppedJobsTimout 0
scalar FogSequentialForward.fog[7].server[0] droppedJobsSLA 0
scalar FogSequentialForward.fog[7].server[0] droppedJobsTotal 0
scalar FogSequentialForward.fog[8].dispatcher localJobs 360252
scalar FogSequentialForward.fog[8].dispatcher internalJobs 360238
scalar FogSequentialForward.fog[8].dispatcher externalJobs 44
scalar FogSequentialForward.fog[8].dispatcher remoteJobs 30
scalar FogSequentialForward.fog[8].dispatcher probeQueries 0
scalar FogSequentialForward.fog[8].dispatcher probeAnswers 0
scalar FogSequentialForward.fog[8].dispatcher droppedJobsSLA 0
scalar FogSequentialForward.fog[8].dispatcher jobs_class_1 360282
scalar FogSequentialForward.fog[8].dispatcher remoteJobs_class_1 30
scalar FogSequentialForward.fog[8].dispatcher localJobs_class_1 360252
scalar FogSequentialForward.fog[8].server[0] rho 0.55707406997681
scalar FogSequentialForward.fog[8].server[0] congestionRatio 0
scalar FogSequentialForward.fog[8].server[0] totalJobs 360252
scalar FogSequentialForward.fog[8].server[0] droppedJobsQueue 0
scalar FogSequentialForward.fog[8].server[0] droppedJobsTimout 0
scalar FogSequentialForward.fog[8].server[0] droppedJobsSLA 2
scalar FogSequentialForward.fog[8].server[0] droppedJobsTotal 2
scalar FogSequentialForward.fog[9].dispatcher localJobs 360598
scalar FogSequentialForward.fog[9].dispatcher internalJobs 360607
scalar FogSequentialForward.fog[9].dispatcher externalJobs 34
scalar FogSequentialForward.fog[9].dispatcher remoteJobs 43
scalar FogSequentialForward.fog[9].dispatcher probeQueries 0
scalar FogSequentialForward.fog[9].dispatcher probeAnswers 0
scalar FogSequentialForward.fog[9].dispatcher droppedJobsSLA 0
scalar FogSequentialForward.fog[9].dispatcher jobs_class_1 360641
scalar FogSequentialForward.fog[9].dispatcher remoteJobs_class_1 43
scalar FogSequentialForward.fog[9].dispatcher localJobs_class_1 360598
scalar FogSequentialForward.fog[9].server[0] rho 0.55756789445877
scalar FogSequentialForward.fog[9].server[0] congestionRatio 0
scalar FogSequentialForward.fog[9].server[0] totalJobs 360598
scalar FogSequentialForward.fog[9].server[0] droppedJobsQueue 0
scalar FogSequentialForward.fog[9].server[0] droppedJobsTimout 0
scalar FogSequentialForward.fog[9].server[0] droppedJobsSLA 1
scalar FogSequentialForward.fog[9].server[0] droppedJobsTotal 1
scalar FogSequentialForward.fog[10].dispatcher localJobs 359990
scalar FogSequentialForward.fog[10].dispatcher internalJobs 359984
scalar FogSequentialForward.fog[10].dispatcher externalJobs 35
scalar FogSequentialForward.fog[10].dispatcher remoteJobs 29
scalar FogSequentialForward.fog[10].dispatcher probeQueries 0
scalar FogSequentialForward.fog[10].dispatcher probeAnswers 0
scalar FogSequentialForward.fog[10].dispatcher droppedJobsSLA 0
scalar FogSequentialForward.fog[10].dispatcher jobs_class_1 360019
scalar FogSequentialForward.fog[10].dispatcher remoteJobs_class_1 29
scalar FogSequentialForward.fog[10].dispatcher localJobs_class_1 359990
scalar FogSequentialForward.fog[10].server[0] rho 0.55665564537048
scalar FogSequentialForward.fog[10].server[0] congestionRatio 0
scalar FogSequentialForward.fog[10].server[0] totalJobs 359990
scalar FogSequentialForward.fog[10].server[0] droppedJobsQueue 0
scalar FogSequentialForward.fog[10].server[0] droppedJobsTimout 0
scalar FogSequentialForward.fog[10].server[0] droppedJobsSLA 0
scalar FogSequentialForward.fog[10].server[0] droppedJobsTotal 0
scalar FogSequentialForward.fog[11].dispatcher localJobs 359960
scalar FogSequentialForward.fog[11].dispatcher internalJobs 359967
scalar FogSequentialForward.fog[11].dispatcher externalJobs 31
scalar FogSequentialForward.fog[11].dispatcher remoteJobs 38
scalar FogSequentialForward.fog[11].dispatcher probeQueries 0
scalar FogSequentialForward.fog[11].dispatcher probeAnswers 0
scalar FogSequentialForward.fog[11].dispatcher droppedJobsSLA 0
scalar FogSequentialForward.fog[11].dispatcher jobs_class_1 359998
scalar FogSequentialForward.fog[11].dispatcher remoteJobs_class_1 38
scalar FogSequentialForward.fog[11].dispatcher localJobs_class_1 359960
scalar FogSequentialForward.fog[11].server[0] rho 0.55660754442215
scalar FogSequentialForward.fog[11].server[0] congestionRatio 0
scalar FogSequentialForward.fog[11].server[0] totalJobs 359960
scalar FogSequentialForward.fog[11].server[0] droppedJobsQueue 0
scalar FogSequentialForward.fog[11].server[0] droppedJobsTimout 0
scalar FogSequentialForward.fog[11].server[0] droppedJobsSLA 0
scalar FogSequentialForward.fog[11].server[0] droppedJobsTotal 0
scalar FogSequentialForward.fog[12].dispatcher localJobs 361457
scalar FogSequentialForward.fog[12].dispatcher internalJobs 361456
scalar FogSequentialForward.fog[12].dispatcher externalJobs 38
scalar FogSequentialForward.fog[12].dispatcher remoteJobs 37
scalar FogSequentialForward.fog[12].dispatcher probeQueries 0
scalar FogSequentialForward.fog[12].dispatcher probeAnswers 0
scalar FogSequentialForward.fog[12].dispatcher droppedJobsSLA 0
scalar FogSequentialForward.fog[12].dispatcher jobs_class_1 361494
scalar FogSequentialForward.fog[12].dispatcher remoteJobs_class_1 37
scalar FogSequentialForward.fog[12].dispatcher localJobs_class_1 361457
scalar FogSequentialForward.fog[12].server[0] rho 0.55889284610748
scalar FogSequentialForward.fog[12].server[0] congestionRatio 0
scalar FogSequentialForward.fog[12].server[0] totalJobs 361457
scalar FogSequentialForward.fog[12].server[0] droppedJobsQueue 0
scalar FogSequentialForward.fog[12].server[0] droppedJobsTimout 0
scalar FogSequentialForward.fog[12].server[0] droppedJobsSLA 2
scalar FogSequentialForward.fog[12].server[0] droppedJobsTotal 2
scalar FogSequentialForward.fog[13].dispatcher localJobs 362233
scalar FogSequentialForward.fog[13].dispatcher internalJobs 362241
scalar FogSequentialForward.fog[13].dispatcher externalJobs 24
scalar FogSequentialForward.fog[13].dispatcher remoteJobs 32
scalar FogSequentialForward.fog[13].dispatcher probeQueries 0
scalar FogSequentialForward.fog[13].dispatcher probeAnswers 0
scalar FogSequentialForward.fog[13].dispatcher droppedJobsSLA 0
scalar FogSequentialForward.fog[13].dispatcher jobs_class_1 362265
scalar FogSequentialForward.fog[13].dispatcher remoteJobs_class_1 32
scalar FogSequentialForward.fog[13].dispatcher localJobs_class_1 362233
scalar FogSequentialForward.fog[13].server[0] rho 0.56012445688248
scalar FogSequentialForward.fog[13].server[0] congestionRatio 0
scalar FogSequentialForward.fog[13].server[0] totalJobs 362233
scalar FogSequentialForward.fog[13].server[0] droppedJobsQueue 0
scalar FogSequentialForward.fog[13].server[0] droppedJobsTimout 0
scalar FogSequentialForward.fog[13].server[0] droppedJobsSLA 1
scalar FogSequentialForward.fog[13].server[0] droppedJobsTotal 1
scalar FogSequentialForward.fog[14].dispatcher localJobs 361760
scalar FogSequentialForward.fog[14].dispatcher internalJobs 361733
scalar FogSequentialForward.fog[14].dispatcher externalJobs 50
scalar FogSequentialForward.fog[14].dispatcher remoteJobs 23
scalar FogSequentialForward.fog[14].dispatcher probeQueries 0
scalar FogSequentialForward.fog[14].dispatcher probeAnswers 0
scalar FogSequentialForward.fog[14].dispatcher droppedJobsSLA 0
scalar FogSequentialForward.fog[14].dispatcher jobs_class_1 361783
scalar FogSequentialForward.fog[14].dispatcher remoteJobs_class_1 23
scalar FogSequentialForward.fog[14].dispatcher localJobs_class_1 361760
scalar FogSequentialForward.fog[14].server[0] rho 0.55941385030746
scalar FogSequentialForward.fog[14].server[0] congestionRatio 0
scalar FogSequentialForward.fog[14].server[0] totalJobs 361760
scalar FogSequentialForward.fog[14].server[0] droppedJobsQueue 0
scalar FogSequentialForward.fog[14].server[0] droppedJobsTimout 0
scalar FogSequentialForward.fog[14].server[0] droppedJobsSLA 1
scalar FogSequentialForward.fog[14].server[0] droppedJobsTotal 1
scalar FogSequentialForward.fog[15].dispatcher localJobs 360702
scalar FogSequentialForward.fog[15].dispatcher internalJobs 360719
scalar FogSequentialForward.fog[15].dispatcher externalJobs 26
scalar FogSequentialForward.fog[15].dispatcher remoteJobs 43
scalar FogSequentialForward.fog[15].dispatcher probeQueries 0
scalar FogSequentialForward.fog[15].dispatcher probeAnswers 0
scalar FogSequentialForward.fog[15].dispatcher droppedJobsSLA 0
scalar FogSequentialForward.fog[15].dispatcher jobs_class_1 360745
scalar FogSequentialForward.fog[15].dispatcher remoteJobs_class_1 43
scalar FogSequentialForward.fog[15].dispatcher localJobs_class_1 360702
scalar FogSequentialForward.fog[15].server[0] rho 0.55778640508652
scalar FogSequentialForward.fog[15].server[0] congestionRatio 0
scalar FogSequentialForward.fog[15].server[0] totalJobs 360702
scalar FogSequentialForward.fog[15].server[0] droppedJobsQueue 0
scalar FogSequentialForward.fog[15].server[0] droppedJobsTimout 0
scalar FogSequentialForward.fog[15].server[0] droppedJobsSLA 0
scalar FogSequentialForward.fog[15].server[0] droppedJobsTotal 0
scalar FogSequentialForward.fog[16].dispatcher localJobs 361917
scalar FogSequentialForward.fog[16].dispatcher internalJobs 361918
scalar FogSequentialForward.fog[16].dispatcher externalJobs 28
scalar FogSequentialForward.fog[16].dispatcher remoteJobs 29
scalar FogSequentialForward.fog[16].dispatcher probeQueries 0
scalar FogSequentialForward.fog[16].dispatcher probeAnswers 0
scalar FogSequentialForward.fog[16].dispatcher droppedJobsSLA 0
scalar FogSequentialForward.fog[16].dispatcher jobs_class_1 361946
scalar FogSequentialForward.fog[16].dispatcher remoteJobs_class_1 29
scalar FogSequentialForward.fog[16].dispatcher localJobs_class_1 361917
scalar FogSequentialForward.fog[16].server[0] rho 0.55960673093796
scalar FogSequentialForward.fog[16].server[0] congestionRatio 0
scalar FogSequentialForward.fog[16].server[0] totalJobs 361917
scalar FogSequentialForward.fog[16].server[0] droppedJobsQueue 0
scalar FogSequentialForward.fog[16].server[0] droppedJobsTimout 0
scalar FogSequentialForward.fog[16].server[0] droppedJobsSLA 0
scalar FogSequentialForward.fog[16].server[0] droppedJobsTotal 0
scalar FogSequentialForward.fog[17].dispatcher localJobs 360330
scalar FogSequentialForward.fog[17].dispatcher internalJobs 360330
scalar FogSequentialForward.fog[17].dispatcher externalJobs 26
scalar FogSequentialForward.fog[17].dispatcher remoteJobs 26
scalar FogSequentialForward.fog[17].dispatcher probeQueries 0
scalar FogSequentialForward.fog[17].dispatcher probeAnswers 0
scalar FogSequentialForward.fog[17].dispatcher droppedJobsSLA 0
scalar FogSequentialForward.fog[17].dispatcher jobs_class_1 360356
scalar FogSequentialForward.fog[17].dispatcher remoteJobs_class_1 26
scalar FogSequentialForward.fog[17].dispatcher localJobs_class_1 360330
scalar FogSequentialForward.fog[17].server[0] rho 0.55719321966171
scalar FogSequentialForward.fog[17].server[0] congestionRatio 0
scalar FogSequentialForward.fog[17].server[0] totalJobs 360330
scalar FogSequentialForward.fog[17].server[0] droppedJobsQueue 0
scalar FogSequentialForward.fog[17].server[0] droppedJobsTimout 0
scalar FogSequentialForward.fog[17].server[0] droppedJobsSLA 0
scalar FogSequentialForward.fog[17].server[0] droppedJobsTotal 0
scalar FogSequentialForward.fog[18].dispatcher localJobs 359869
scalar FogSequentialForward.fog[18].dispatcher internalJobs 359861
scalar FogSequentialForward.fog[18].dispatcher externalJobs 43
scalar FogSequentialForward.fog[18].dispatcher remoteJobs 35
scalar FogSequentialForward.fog[18].dispatcher probeQueries 0
scalar FogSequentialForward.fog[18].dispatcher probeAnswers 0
scalar FogSequentialForward.fog[18].dispatcher droppedJobsSLA 0
scalar FogSequentialForward.fog[18].dispatcher jobs_class_1 359904
scalar FogSequentialForward.fog[18].dispatcher remoteJobs_class_1 35
scalar FogSequentialForward.fog[18].dispatcher localJobs_class_1 359869
scalar FogSequentialForward.fog[18].server[0] rho 0.55644410848618
scalar FogSequentialForward.fog[18].server[0] congestionRatio 0
scalar FogSequentialForward.fog[18].server[0] totalJobs 359869
scalar FogSequentialForward.fog[18].server[0] droppedJobsQueue 0
scalar FogSequentialForward.fog[18].server[0] droppedJobsTimout 0
scalar FogSequentialForward.fog[18].server[0] droppedJobsSLA 1
scalar FogSequentialForward.fog[18].server[0] droppedJobsTotal 1
scalar FogSequentialForward.fog[19].dispatcher localJobs 360791
scalar FogSequentialForward.fog[19].dispatcher internalJobs 360757
scalar FogSequentialForward.fog[19].dispatcher externalJobs 47
scalar FogSequentialForward.fog[19].dispatcher remoteJobs 13
scalar FogSequentialForward.fog[19].dispatcher probeQueries 0
scalar FogSequentialForward.fog[19].dispatcher probeAnswers 0
scalar FogSequentialForward.fog[19].dispatcher droppedJobsSLA 0
scalar FogSequentialForward.fog[19].dispatcher jobs_class_1 360804
scalar FogSequentialForward.fog[19].dispatcher remoteJobs_class_1 13
scalar FogSequentialForward.fog[19].dispatcher localJobs_class_1 360791
scalar FogSequentialForward.fog[19].server[0] rho 0.55789887905121
scalar FogSequentialForward.fog[19].server[0] congestionRatio 0
scalar FogSequentialForward.fog[19].server[0] totalJobs 360791
scalar FogSequentialForward.fog[19].server[0] droppedJobsQueue 0
scalar FogSequentialForward.fog[19].server[0] droppedJobsTimout 0
scalar FogSequentialForward.fog[19].server[0] droppedJobsSLA 0
scalar FogSequentialForward.fog[19].server[0] droppedJobsTotal 0
scalar FogSequentialForward.fog[20].dispatcher localJobs 360888
scalar FogSequentialForward.fog[20].dispatcher internalJobs 360891
scalar FogSequentialForward.fog[20].dispatcher externalJobs 28
scalar FogSequentialForward.fog[20].dispatcher remoteJobs 31
scalar FogSequentialForward.fog[20].dispatcher probeQueries 0
scalar FogSequentialForward.fog[20].dispatcher probeAnswers 0
scalar FogSequentialForward.fog[20].dispatcher droppedJobsSLA 0
scalar FogSequentialForward.fog[20].dispatcher jobs_class_1 360919
scalar FogSequentialForward.fog[20].dispatcher remoteJobs_class_1 31
scalar FogSequentialForward.fog[20].dispatcher localJobs_class_1 360888
scalar FogSequentialForward.fog[20].server[0] rho 0.55803328752518
scalar FogSequentialForward.fog[20].server[0] congestionRatio 0
scalar FogSequentialForward.fog[20].server[0] totalJobs 360888
scalar FogSequentialForward.fog[20].server[0] droppedJobsQueue 0
scalar FogSequentialForward.fog[20].server[0] droppedJobsTimout 0
scalar FogSequentialForward.fog[20].server[0] droppedJobsSLA 0
scalar FogSequentialForward.fog[20].server[0] droppedJobsTotal 0
scalar FogSequentialForward.fog[21].dispatcher localJobs 360988
scalar FogSequentialForward.fog[21].dispatcher internalJobs 360978
scalar FogSequentialForward.fog[21].dispatcher externalJobs 40
scalar FogSequentialForward.fog[21].dispatcher remoteJobs 30
scalar FogSequentialForward.fog[21].dispatcher probeQueries 0
scalar FogSequentialForward.fog[21].dispatcher probeAnswers 0
scalar FogSequentialForward.fog[21].dispatcher droppedJobsSLA 0
scalar FogSequentialForward.fog[21].dispatcher jobs_class_1 361018
scalar FogSequentialForward.fog[21].dispatcher remoteJobs_class_1 30
scalar FogSequentialForward.fog[21].dispatcher localJobs_class_1 360988
scalar FogSequentialForward.fog[21].server[0] rho 0.55817693471909
scalar FogSequentialForward.fog[21].server[0] congestionRatio 0
scalar FogSequentialForward.fog[21].server[0] totalJobs 360988
scalar FogSequentialForward.fog[21].server[0] droppedJobsQueue 0
scalar FogSequentialForward.fog[21].server[0] droppedJobsTimout 0
scalar FogSequentialForward.fog[21].server[0] droppedJobsSLA 0
scalar FogSequentialForward.fog[21].server[0] droppedJobsTotal 0
scalar FogSequentialForward.fog[22].dispatcher localJobs 361355
scalar FogSequentialForward.fog[22].dispatcher internalJobs 361354
scalar FogSequentialForward.fog[22].dispatcher externalJobs 33
scalar FogSequentialForward.fog[22].dispatcher remoteJobs 32
scalar FogSequentialForward.fog[22].dispatcher probeQueries 0
scalar FogSequentialForward.fog[22].dispatcher probeAnswers 0
scalar FogSequentialForward.fog[22].dispatcher droppedJobsSLA 0
scalar FogSequentialForward.fog[22].dispatcher jobs_class_1 361387
scalar FogSequentialForward.fog[22].dispatcher remoteJobs_class_1 32
scalar FogSequentialForward.fog[22].dispatcher localJobs_class_1 361355
scalar FogSequentialForward.fog[22].server[0] rho 0.55876046419144
scalar FogSequentialForward.fog[22].server[0] congestionRatio 0
scalar FogSequentialForward.fog[22].server[0] totalJobs 361355
scalar FogSequentialForward.fog[22].server[0] droppedJobsQueue 0
scalar FogSequentialForward.fog[22].server[0] droppedJobsTimout 0
scalar FogSequentialForward.fog[22].server[0] droppedJobsSLA 1
scalar FogSequentialForward.fog[22].server[0] droppedJobsTotal 1
scalar FogSequentialForward.fog[23].dispatcher localJobs 360158
scalar FogSequentialForward.fog[23].dispatcher internalJobs 360157
scalar FogSequentialForward.fog[23].dispatcher externalJobs 32
scalar FogSequentialForward.fog[23].dispatcher remoteJobs 31
scalar FogSequentialForward.fog[23].dispatcher probeQueries 0
scalar FogSequentialForward.fog[23].dispatcher probeAnswers 0
scalar FogSequentialForward.fog[23].dispatcher droppedJobsSLA 0
scalar FogSequentialForward.fog[23].dispatcher jobs_class_1 360189
scalar FogSequentialForward.fog[23].dispatcher remoteJobs_class_1 31
scalar FogSequentialForward.fog[23].dispatcher localJobs_class_1 360158
scalar FogSequentialForward.fog[23].server[0] rho 0.55692726373672
scalar FogSequentialForward.fog[23].server[0] congestionRatio 0
scalar FogSequentialForward.fog[23].server[0] totalJobs 360158
scalar FogSequentialForward.fog[23].server[0] droppedJobsQueue 0
scalar FogSequentialForward.fog[23].server[0] droppedJobsTimout 0
scalar FogSequentialForward.fog[23].server[0] droppedJobsSLA 1
scalar FogSequentialForward.fog[23].server[0] droppedJobsTotal 1
scalar FogSequentialForward.fog[24].dispatcher localJobs 361630
scalar FogSequentialForward.fog[24].dispatcher internalJobs 361653
scalar FogSequentialForward.fog[24].dispatcher externalJobs 24
scalar FogSequentialForward.fog[24].dispatcher remoteJobs 47
scalar FogSequentialForward.fog[24].dispatcher probeQueries 0
scalar FogSequentialForward.fog[24].dispatcher probeAnswers 0
scalar FogSequentialForward.fog[24].dispatcher droppedJobsSLA 0
scalar FogSequentialForward.fog[24].dispatcher jobs_class_1 361677
scalar FogSequentialForward.fog[24].dispatcher remoteJobs_class_1 47
scalar FogSequentialForward.fog[24].dispatcher localJobs_class_1 361630
scalar FogSequentialForward.fog[24].server[0] rho 0.55917978286743
scalar FogSequentialForward.fog[24].server[0] congestionRatio 0
scalar FogSequentialForward.fog[24].server[0] totalJobs 361630
scalar FogSequentialForward.fog[24].server[0] droppedJobsQueue 0
scalar FogSequentialForward.fog[24].server[0] droppedJobsTimout 0
scalar FogSequentialForward.fog[24].server[0] droppedJobsSLA 2
scalar FogSequentialForward.fog[24].server[0] droppedJobsTotal 2
scalar FogSequentialForward.fog[25].dispatcher localJobs 361149
scalar FogSequentialForward.fog[25].dispatcher internalJobs 361150
scalar FogSequentialForward.fog[25].dispatcher externalJobs 29
scalar FogSequentialForward.fog[25].dispatcher remoteJobs 30
scalar FogSequentialForward.fog[25].dispatcher probeQueries 0
scalar FogSequentialForward.fog[25].dispatcher probeAnswers 0
scalar FogSequentialForward.fog[25].dispatcher droppedJobsSLA 0
scalar FogSequentialForward.fog[25].dispatcher jobs_class_1 361179
scalar FogSequentialForward.fog[25].dispatcher remoteJobs_class_1 30
scalar FogSequentialForward.fog[25].dispatcher localJobs_class_1 361149
scalar FogSequentialForward.fog[25].server[0] rho 0.5584260225296
scalar FogSequentialForward.fog[25].server[0] congestionRatio 0
scalar FogSequentialForward.fog[25].server[0] totalJobs 361149
scalar FogSequentialForward.fog[25].server[0] droppedJobsQueue 0
scalar FogSequentialForward.fog[25].server[0] droppedJobsTimout 0
scalar FogSequentialForward.fog[25].server[0] droppedJobsSLA 0
scalar FogSequentialForward.fog[25].server[0] droppedJobsTotal 0
scalar FogSequentialForward.fog[26].dispatcher localJobs 361125
scalar FogSequentialForward.fog[26].dispatcher internalJobs 361135
scalar FogSequentialForward.fog[26].dispatcher externalJobs 30
scalar FogSequentialForward.fog[26].dispatcher remoteJobs 40
scalar FogSequentialForward.fog[26].dispatcher probeQueries 0
scalar FogSequentialForward.fog[26].dispatcher probeAnswers 0
scalar FogSequentialForward.fog[26].dispatcher droppedJobsSLA 0
scalar FogSequentialForward.fog[26].dispatcher jobs_class_1 361165
scalar FogSequentialForward.fog[26].dispatcher remoteJobs_class_1 40
scalar FogSequentialForward.fog[26].dispatcher localJobs_class_1 361125
scalar FogSequentialForward.fog[26].server[0] rho 0.55839031934738
scalar FogSequentialForward.fog[26].server[0] congestionRatio 0
scalar FogSequentialForward.fog[26].server[0] totalJobs 361125
scalar FogSequentialForward.fog[26].server[0] droppedJobsQueue 0
scalar FogSequentialForward.fog[26].server[0] droppedJobsTimout 0
scalar FogSequentialForward.fog[26].server[0] droppedJobsSLA 2
scalar FogSequentialForward.fog[26].server[0] droppedJobsTotal 2
scalar FogSequentialForward.fog[27].dispatcher localJobs 360417
scalar FogSequentialForward.fog[27].dispatcher internalJobs 360416
scalar FogSequentialForward.fog[27].dispatcher externalJobs 33
scalar FogSequentialForward.fog[27].dispatcher remoteJobs 32
scalar FogSequentialForward.fog[27].dispatcher probeQueries 0
scalar FogSequentialForward.fog[27].dispatcher probeAnswers 0
scalar FogSequentialForward.fog[27].dispatcher droppedJobsSLA 0
scalar FogSequentialForward.fog[27].dispatcher jobs_class_1 360449
scalar FogSequentialForward.fog[27].dispatcher remoteJobs_class_1 32
scalar FogSequentialForward.fog[27].dispatcher localJobs_class_1 360417
scalar FogSequentialForward.fog[27].server[0] rho 0.55730307102203
scalar FogSequentialForward.fog[27].server[0] congestionRatio 0
scalar FogSequentialForward.fog[27].server[0] totalJobs 360417
scalar FogSequentialForward.fog[27].server[0] droppedJobsQueue 0
scalar FogSequentialForward.fog[27].server[0] droppedJobsTimout 0
scalar FogSequentialForward.fog[27].server[0] droppedJobsSLA 0
scalar FogSequentialForward.fog[27].server[0] droppedJobsTotal 0
scalar FogSequentialForward.fog[28].dispatcher localJobs 361232
scalar FogSequentialForward.fog[28].dispatcher internalJobs 361231
scalar FogSequentialForward.fog[28].dispatcher externalJobs 39
scalar FogSequentialForward.fog[28].dispatcher remoteJobs 38
scalar FogSequentialForward.fog[28].dispatcher probeQueries 0
scalar FogSequentialForward.fog[28].dispatcher probeAnswers 0
scalar FogSequentialForward.fog[28].dispatcher droppedJobsSLA 0
scalar FogSequentialForward.fog[28].dispatcher jobs_class_1 361270
scalar FogSequentialForward.fog[28].dispatcher remoteJobs_class_1 38
scalar FogSequentialForward.fog[28].dispatcher localJobs_class_1 361232
scalar FogSequentialForward.fog[28].server[0] rho 0.55860632658005
scalar FogSequentialForward.fog[28].server[0] congestionRatio 0
scalar FogSequentialForward.fog[28].server[0] totalJobs 361232
scalar FogSequentialForward.fog[28].server[0] droppedJobsQueue 0
scalar FogSequentialForward.fog[28].server[0] droppedJobsTimout 0
scalar FogSequentialForward.fog[28].server[0] droppedJobsSLA 1
scalar FogSequentialForward.fog[28].server[0] droppedJobsTotal 1
scalar FogSequentialForward.fog[29].dispatcher localJobs 360781
scalar FogSequentialForward.fog[29].dispatcher internalJobs 360786
scalar FogSequentialForward.fog[29].dispatcher externalJobs 30
scalar FogSequentialForward.fog[29].dispatcher remoteJobs 35
scalar FogSequentialForward.fog[29].dispatcher probeQueries 0
scalar FogSequentialForward.fog[29].dispatcher probeAnswers 0
scalar FogSequentialForward.fog[29].dispatcher droppedJobsSLA 0
scalar FogSequentialForward.fog[29].dispatcher jobs_class_1 360816
scalar FogSequentialForward.fog[29].dispatcher remoteJobs_class_1 35
scalar FogSequentialForward.fog[29].dispatcher localJobs_class_1 360781
scalar FogSequentialForward.fog[29].server[0] rho 0.55788052082062
scalar FogSequentialForward.fog[29].server[0] congestionRatio 0
scalar FogSequentialForward.fog[29].server[0] totalJobs 360781
scalar FogSequentialForward.fog[29].server[0] droppedJobsQueue 0
scalar FogSequentialForward.fog[29].server[0] droppedJobsTimout 0
scalar FogSequentialForward.fog[29].server[0] droppedJobsSLA 2
scalar FogSequentialForward.fog[29].server[0] droppedJobsTotal 2
scalar FogSequentialForward.fog[30].dispatcher localJobs 359613
scalar FogSequentialForward.fog[30].dispatcher internalJobs 359606
scalar FogSequentialForward.fog[30].dispatcher externalJobs 37
scalar FogSequentialForward.fog[30].dispatcher remoteJobs 30
scalar FogSequentialForward.fog[30].dispatcher probeQueries 0
scalar FogSequentialForward.fog[30].dispatcher probeAnswers 0
scalar FogSequentialForward.fog[30].dispatcher droppedJobsSLA 0
scalar FogSequentialForward.fog[30].dispatcher jobs_class_1 359643
scalar FogSequentialForward.fog[30].dispatcher remoteJobs_class_1 30
scalar FogSequentialForward.fog[30].dispatcher localJobs_class_1 359613
scalar FogSequentialForward.fog[30].server[0] rho 0.55604416131973
scalar FogSequentialForward.fog[30].server[0] congestionRatio 0
scalar FogSequentialForward.fog[30].server[0] totalJobs 359613
scalar FogSequentialForward.fog[30].server[0] droppedJobsQueue 0
scalar FogSequentialForward.fog[30].server[0] droppedJobsTimout 0
scalar FogSequentialForward.fog[30].server[0] droppedJobsSLA 0
scalar FogSequentialForward.fog[30].server[0] droppedJobsTotal 0
scalar FogSequentialForward.fog[31].dispatcher localJobs 360296
scalar FogSequentialForward.fog[31].dispatcher internalJobs 360299
scalar FogSequentialForward.fog[31].dispatcher externalJobs 35
scalar FogSequentialForward.fog[31].dispatcher remoteJobs 38
scalar FogSequentialForward.fog[31].dispatcher probeQueries 0
scalar FogSequentialForward.fog[31].dispatcher probeAnswers 0
scalar FogSequentialForward.fog[31].dispatcher droppedJobsSLA 0
scalar FogSequentialForward.fog[31].dispatcher jobs_class_1 360334
scalar FogSequentialForward.fog[31].dispatcher remoteJobs_class_1 38
scalar FogSequentialForward.fog[31].dispatcher localJobs_class_1 360296
scalar FogSequentialForward.fog[31].server[0] rho 0.55714511871338
scalar FogSequentialForward.fog[31].server[0] congestionRatio 0
scalar FogSequentialForward.fog[31].server[0] totalJobs 360296
scalar FogSequentialForward.fog[31].server[0] droppedJobsQueue 0
scalar FogSequentialForward.fog[31].server[0] droppedJobsTimout 0
scalar FogSequentialForward.fog[31].server[0] droppedJobsSLA 0
scalar FogSequentialForward.fog[31].server[0] droppedJobsTotal 0
scalar FogSequentialForward.fog[32].dispatcher localJobs 360581
scalar FogSequentialForward.fog[32].dispatcher internalJobs 360570
scalar FogSequentialForward.fog[32].dispatcher externalJobs 39
scalar FogSequentialForward.fog[32].dispatcher remoteJobs 28
scalar FogSequentialForward.fog[32].dispatcher probeQueries 0
scalar FogSequentialForward.fog[32].dispatcher probeAnswers 0
scalar FogSequentialForward.fog[32].dispatcher droppedJobsSLA 0
scalar FogSequentialForward.fog[32].dispatcher jobs_class_1 360609
scalar FogSequentialForward.fog[32].dispatcher remoteJobs_class_1 28
scalar FogSequentialForward.fog[32].dispatcher localJobs_class_1 360581
scalar FogSequentialForward.fog[32].server[0] rho 0.55757182836533
scalar FogSequentialForward.fog[32].server[0] congestionRatio 0
scalar FogSequentialForward.fog[32].server[0] totalJobs 360581
scalar FogSequentialForward.fog[32].server[0] droppedJobsQueue 0
scalar FogSequentialForward.fog[32].server[0] droppedJobsTimout 0
scalar FogSequentialForward.fog[32].server[0] droppedJobsSLA 1
scalar FogSequentialForward.fog[32].server[0] droppedJobsTotal 1
scalar FogSequentialForward.fog[33].dispatcher localJobs 359662
scalar FogSequentialForward.fog[33].dispatcher internalJobs 359662
scalar FogSequentialForward.fog[33].dispatcher externalJobs 35
scalar FogSequentialForward.fog[33].dispatcher remoteJobs 35
scalar FogSequentialForward.fog[33].dispatcher probeQueries 0
scalar FogSequentialForward.fog[33].dispatcher probeAnswers 0
scalar FogSequentialForward.fog[33].dispatcher droppedJobsSLA 0
scalar FogSequentialForward.fog[33].dispatcher jobs_class_1 359697
scalar FogSequentialForward.fog[33].dispatcher remoteJobs_class_1 35
scalar FogSequentialForward.fog[33].dispatcher localJobs_class_1 359662
scalar FogSequentialForward.fog[33].server[0] rho 0.55613988637924
scalar FogSequentialForward.fog[33].server[0] congestionRatio 0
scalar FogSequentialForward.fog[33].server[0] totalJobs 359662
scalar FogSequentialForward.fog[33].server[0] droppedJobsQueue 0
scalar FogSequentialForward.fog[33].server[0] droppedJobsTimout 0
scalar FogSequentialForward.fog[33].server[0] droppedJobsSLA 0
scalar FogSequentialForward.fog[33].server[0] droppedJobsTotal 0
scalar FogSequentialForward.fog[34].dispatcher localJobs 361115
scalar FogSequentialForward.fog[34].dispatcher internalJobs 361117
scalar FogSequentialForward.fog[34].dispatcher externalJobs 31
scalar FogSequentialForward.fog[34].dispatcher remoteJobs 33
scalar FogSequentialForward.fog[34].dispatcher probeQueries 0
scalar FogSequentialForward.fog[34].dispatcher probeAnswers 0
scalar FogSequentialForward.fog[34].dispatcher droppedJobsSLA 0
scalar FogSequentialForward.fog[34].dispatcher jobs_class_1 361148
scalar FogSequentialForward.fog[34].dispatcher remoteJobs_class_1 33
scalar FogSequentialForward.fog[34].dispatcher localJobs_class_1 361115
scalar FogSequentialForward.fog[34].server[0] rho 0.55836713314056
scalar FogSequentialForward.fog[34].server[0] congestionRatio 0
scalar FogSequentialForward.fog[34].server[0] totalJobs 361115
scalar FogSequentialForward.fog[34].server[0] droppedJobsQueue 0
scalar FogSequentialForward.fog[34].server[0] droppedJobsTimout 0
scalar FogSequentialForward.fog[34].server[0] droppedJobsSLA 0
scalar FogSequentialForward.fog[34].server[0] droppedJobsTotal 0
scalar FogSequentialForward.fog[35].dispatcher localJobs 361035
scalar FogSequentialForward.fog[35].dispatcher internalJobs 361042
scalar FogSequentialForward.fog[35].dispatcher externalJobs 29
scalar FogSequentialForward.fog[35].dispatcher remoteJobs 36
scalar FogSequentialForward.fog[35].dispatcher probeQueries 0
scalar FogSequentialForward.fog[35].dispatcher probeAnswers 0
scalar FogSequentialForward.fog[35].dispatcher droppedJobsSLA 0
scalar FogSequentialForward.fog[35].dispatcher jobs_class_1 361071
scalar FogSequentialForward.fog[35].dispatcher remoteJobs_class_1 36
scalar FogSequentialForward.fog[35].dispatcher localJobs_class_1 361035
scalar FogSequentialForward.fog[35].server[0] rho 0.5582617521286
scalar FogSequentialForward.fog[35].server[0] congestionRatio 0
scalar FogSequentialForward.fog[35].server[0] totalJobs 361035
scalar FogSequentialForward.fog[35].server[0] droppedJobsQueue 0
scalar FogSequentialForward.fog[35].server[0] droppedJobsTimout 0
scalar FogSequentialForward.fog[35].server[0] droppedJobsSLA 0
scalar FogSequentialForward.fog[35].server[0] droppedJobsTotal 0
scalar FogSequentialForward.fog[36].dispatcher localJobs 360786
scalar FogSequentialForward.fog[36].dispatcher internalJobs 360777
scalar FogSequentialForward.fog[36].dispatcher externalJobs 37
scalar FogSequentialForward.fog[36].dispatcher remoteJobs 28
scalar FogSequentialForward.fog[36].dispatcher probeQueries 0
scalar FogSequentialForward.fog[36].dispatcher probeAnswers 0
scalar FogSequentialForward.fog[36].dispatcher droppedJobsSLA 0
scalar FogSequentialForward.fog[36].dispatcher jobs_class_1 360814
scalar FogSequentialForward.fog[36].dispatcher remoteJobs_class_1 28
scalar FogSequentialForward.fog[36].dispatcher localJobs_class_1 360786
scalar FogSequentialForward.fog[36].server[0] rho 0.5579035282135
scalar FogSequentialForward.fog[36].server[0] congestionRatio 0
scalar FogSequentialForward.fog[36].server[0] totalJobs 360786
scalar FogSequentialForward.fog[36].server[0] droppedJobsQueue 0
scalar FogSequentialForward.fog[36].server[0] droppedJobsTimout 0
scalar FogSequentialForward.fog[36].server[0] droppedJobsSLA 0
scalar FogSequentialForward.fog[36].server[0] droppedJobsTotal 0
scalar FogSequentialForward.fog[37].dispatcher localJobs 361001
scalar FogSequentialForward.fog[37].dispatcher internalJobs 361002
scalar FogSequentialForward.fog[37].dispatcher externalJobs 30
scalar FogSequentialForward.fog[37].dispatcher remoteJobs 31
scalar FogSequentialForward.fog[37].dispatcher probeQueries 0
scalar FogSequentialForward.fog[37].dispatcher probeAnswers 0
scalar FogSequentialForward.fog[37].dispatcher droppedJobsSLA 0
scalar FogSequentialForward.fog[37].dispatcher jobs_class_1 361032
scalar FogSequentialForward.fog[37].dispatcher remoteJobs_class_1 31
scalar FogSequentialForward.fog[37].dispatcher localJobs_class_1 361001
scalar FogSequentialForward.fog[37].server[0] rho 0.55820572376251
scalar FogSequentialForward.fog[37].server[0] congestionRatio 0
scalar FogSequentialForward.fog[37].server[0] totalJobs 361001
scalar FogSequentialForward.fog[37].server[0] droppedJobsQueue 0
scalar FogSequentialForward.fog[37].server[0] droppedJobsTimout 0
scalar FogSequentialForward.fog[37].server[0] droppedJobsSLA 1
scalar FogSequentialForward.fog[37].server[0] droppedJobsTotal 1
scalar FogSequentialForward.fog[38].dispatcher localJobs 361714
scalar FogSequentialForward.fog[38].dispatcher internalJobs 361715
scalar FogSequentialForward.fog[38].dispatcher externalJobs 30
scalar FogSequentialForward.fog[38].dispatcher remoteJobs 31
scalar FogSequentialForward.fog[38].dispatcher probeQueries 0
scalar FogSequentialForward.fog[38].dispatcher probeAnswers 0
scalar FogSequentialForward.fog[38].dispatcher droppedJobsSLA 0
scalar FogSequentialForward.fog[38].dispatcher jobs_class_1 361745
scalar FogSequentialForward.fog[38].dispatcher remoteJobs_class_1 31
scalar FogSequentialForward.fog[38].dispatcher localJobs_class_1 361714
scalar FogSequentialForward.fog[38].server[0] rho 0.55928945541382
scalar FogSequentialForward.fog[38].server[0] congestionRatio 0
scalar FogSequentialForward.fog[38].server[0] totalJobs 361714
scalar FogSequentialForward.fog[38].server[0] droppedJobsQueue 0
scalar FogSequentialForward.fog[38].server[0] droppedJobsTimout 0
scalar FogSequentialForward.fog[38].server[0] droppedJobsSLA 2
scalar FogSequentialForward.fog[38].server[0] droppedJobsTotal 2
scalar FogSequentialForward.fog[39].dispatcher localJobs 360054
scalar FogSequentialForward.fog[39].dispatcher internalJobs 360033
scalar FogSequentialForward.fog[39].dispatcher externalJobs 33
scalar FogSequentialForward.fog[39].dispatcher remoteJobs 12
scalar FogSequentialForward.fog[39].dispatcher probeQueries 0
scalar FogSequentialForward.fog[39].dispatcher probeAnswers 0
scalar FogSequentialForward.fog[39].dispatcher droppedJobsSLA 0
scalar FogSequentialForward.fog[39].dispatcher jobs_class_1 360066
scalar FogSequentialForward.fog[39].dispatcher remoteJobs_class_1 12
scalar FogSequentialForward.fog[39].dispatcher localJobs_class_1 360054
scalar FogSequentialForward.fog[39].server[0] rho 0.55672889947891
scalar FogSequentialForward.fog[39].server[0] congestionRatio 0
scalar FogSequentialForward.fog[39].server[0] totalJobs 360054
scalar FogSequentialForward.fog[39].server[0] droppedJobsQueue 0
scalar FogSequentialForward.fog[39].server[0] droppedJobsTimout 0
scalar FogSequentialForward.fog[39].server[0] droppedJobsSLA 1
scalar FogSequentialForward.fog[39].server[0] droppedJobsTotal 1
scalar FogSequentialForward.fog[40].dispatcher localJobs 360364
scalar FogSequentialForward.fog[40].dispatcher internalJobs 360363
scalar FogSequentialForward.fog[40].dispatcher externalJobs 36
scalar FogSequentialForward.fog[40].dispatcher remoteJobs 35
scalar FogSequentialForward.fog[40].dispatcher probeQueries 0
scalar FogSequentialForward.fog[40].dispatcher probeAnswers 0
scalar FogSequentialForward.fog[40].dispatcher droppedJobsSLA 0
scalar FogSequentialForward.fog[40].dispatcher jobs_class_1 360399
scalar FogSequentialForward.fog[40].dispatcher remoteJobs_class_1 35
scalar FogSequentialForward.fog[40].dispatcher localJobs_class_1 360364
scalar FogSequentialForward.fog[40].server[0] rho 0.55722683668137
scalar FogSequentialForward.fog[40].server[0] congestionRatio 0
scalar FogSequentialForward.fog[40].server[0] totalJobs 360364
scalar FogSequentialForward.fog[40].server[0] droppedJobsQueue 0
scalar FogSequentialForward.fog[40].server[0] droppedJobsTimout 0
scalar FogSequentialForward.fog[40].server[0] droppedJobsSLA 3
scalar FogSequentialForward.fog[40].server[0] droppedJobsTotal 3
scalar FogSequentialForward.fog[41].dispatcher localJobs 360650
scalar FogSequentialForward.fog[41].dispatcher internalJobs 360643
scalar FogSequentialForward.fog[41].dispatcher externalJobs 35
scalar FogSequentialForward.fog[41].dispatcher remoteJobs 28
scalar FogSequentialForward.fog[41].dispatcher probeQueries 0
scalar FogSequentialForward.fog[41].dispatcher probeAnswers 0
scalar FogSequentialForward.fog[41].dispatcher droppedJobsSLA 0
scalar FogSequentialForward.fog[41].dispatcher jobs_class_1 360678
scalar FogSequentialForward.fog[41].dispatcher remoteJobs_class_1 28
scalar FogSequentialForward.fog[41].dispatcher localJobs_class_1 360650
scalar FogSequentialForward.fog[41].server[0] rho 0.55768573284149
scalar FogSequentialForward.fog[41].server[0] congestionRatio 0
scalar FogSequentialForward.fog[41].server[0] totalJobs 360650
scalar FogSequentialForward.fog[41].server[0] droppedJobsQueue 0
scalar FogSequentialForward.fog[41].server[0] droppedJobsTimout 0
scalar FogSequentialForward.fog[41].server[0] droppedJobsSLA 2
scalar FogSequentialForward.fog[41].server[0] droppedJobsTotal 2
scalar FogSequentialForward.fog[42].dispatcher localJobs 360803
scalar FogSequentialForward.fog[42].dispatcher internalJobs 360804
scalar FogSequentialForward.fog[42].dispatcher externalJobs 38
scalar FogSequentialForward.fog[42].dispatcher remoteJobs 39
scalar FogSequentialForward.fog[42].dispatcher probeQueries 0
scalar FogSequentialForward.fog[42].dispatcher probeAnswers 0
scalar FogSequentialForward.fog[42].dispatcher droppedJobsSLA 0
scalar FogSequentialForward.fog[42].dispatcher jobs_class_1 360842
scalar FogSequentialForward.fog[42].dispatcher remoteJobs_class_1 39
scalar FogSequentialForward.fog[42].dispatcher localJobs_class_1 360803
scalar FogSequentialForward.fog[42].server[0] rho 0.55790561437607
scalar FogSequentialForward.fog[42].server[0] congestionRatio 0
scalar FogSequentialForward.fog[42].server[0] totalJobs 360803
scalar FogSequentialForward.fog[42].server[0] droppedJobsQueue 0
scalar FogSequentialForward.fog[42].server[0] droppedJobsTimout 0
scalar FogSequentialForward.fog[42].server[0] droppedJobsSLA 5
scalar FogSequentialForward.fog[42].server[0] droppedJobsTotal 5
scalar FogSequentialForward.fog[43].dispatcher localJobs 360090
scalar FogSequentialForward.fog[43].dispatcher internalJobs 360084
scalar FogSequentialForward.fog[43].dispatcher externalJobs 34
scalar FogSequentialForward.fog[43].dispatcher remoteJobs 28
scalar FogSequentialForward.fog[43].dispatcher probeQueries 0
scalar FogSequentialForward.fog[43].dispatcher probeAnswers 0
scalar FogSequentialForward.fog[43].dispatcher droppedJobsSLA 0
scalar FogSequentialForward.fog[43].dispatcher jobs_class_1 360118
scalar FogSequentialForward.fog[43].dispatcher remoteJobs_class_1 28
scalar FogSequentialForward.fog[43].dispatcher localJobs_class_1 360090
scalar FogSequentialForward.fog[43].server[0] rho 0.55682927370071
scalar FogSequentialForward.fog[43].server[0] congestionRatio 0
scalar FogSequentialForward.fog[43].server[0] totalJobs 360090
scalar FogSequentialForward.fog[43].server[0] droppedJobsQueue 0
scalar FogSequentialForward.fog[43].server[0] droppedJobsTimout 0
scalar FogSequentialForward.fog[43].server[0] droppedJobsSLA 0
scalar FogSequentialForward.fog[43].server[0] droppedJobsTotal 0
scalar FogSequentialForward.fog[44].dispatcher localJobs 360172
scalar FogSequentialForward.fog[44].dispatcher internalJobs 360168
scalar FogSequentialForward.fog[44].dispatcher externalJobs 42
scalar FogSequentialForward.fog[44].dispatcher remoteJobs 38
scalar FogSequentialForward.fog[44].dispatcher probeQueries 0
scalar FogSequentialForward.fog[44].dispatcher probeAnswers 0
scalar FogSequentialForward.fog[44].dispatcher droppedJobsSLA 0
scalar FogSequentialForward.fog[44].dispatcher jobs_class_1 360210
scalar FogSequentialForward.fog[44].dispatcher remoteJobs_class_1 38
scalar FogSequentialForward.fog[44].dispatcher localJobs_class_1 360172
scalar FogSequentialForward.fog[44].server[0] rho 0.55692899227142
scalar FogSequentialForward.fog[44].server[0] congestionRatio 0
scalar FogSequentialForward.fog[44].server[0] totalJobs 360172
scalar FogSequentialForward.fog[44].server[0] droppedJobsQueue 0
scalar FogSequentialForward.fog[44].server[0] droppedJobsTimout 0
scalar FogSequentialForward.fog[44].server[0] droppedJobsSLA 1
scalar FogSequentialForward.fog[44].server[0] droppedJobsTotal 1
scalar FogSequentialForward.fog[45].dispatcher localJobs 359374
scalar FogSequentialForward.fog[45].dispatcher internalJobs 359364
scalar FogSequentialForward.fog[45].dispatcher externalJobs 46
scalar FogSequentialForward.fog[45].dispatcher remoteJobs 36
scalar FogSequentialForward.fog[45].dispatcher probeQueries 0
scalar FogSequentialForward.fog[45].dispatcher probeAnswers 0
scalar FogSequentialForward.fog[45].dispatcher droppedJobsSLA 0
scalar FogSequentialForward.fog[45].dispatcher jobs_class_1 359410
scalar FogSequentialForward.fog[45].dispatcher remoteJobs_class_1 36
scalar FogSequentialForward.fog[45].dispatcher localJobs_class_1 359374
scalar FogSequentialForward.fog[45].server[0] rho 0.55571728944778
scalar FogSequentialForward.fog[45].server[0] congestionRatio 0
scalar FogSequentialForward.fog[45].server[0] totalJobs 359374
scalar FogSequentialForward.fog[45].server[0] droppedJobsQueue 0
scalar FogSequentialForward.fog[45].server[0] droppedJobsTimout 0
scalar FogSequentialForward.fog[45].server[0] droppedJobsSLA 0
scalar FogSequentialForward.fog[45].server[0] droppedJobsTotal 0
scalar FogSequentialForward.fog[46].dispatcher localJobs 361103
scalar FogSequentialForward.fog[46].dispatcher internalJobs 361118
scalar FogSequentialForward.fog[46].dispatcher externalJobs 25
scalar FogSequentialForward.fog[46].dispatcher remoteJobs 40
scalar FogSequentialForward.fog[46].dispatcher probeQueries 0
scalar FogSequentialForward.fog[46].dispatcher probeAnswers 0
scalar FogSequentialForward.fog[46].dispatcher droppedJobsSLA 0
scalar FogSequentialForward.fog[46].dispatcher jobs_class_1 361143
scalar FogSequentialForward.fog[46].dispatcher remoteJobs_class_1 40
scalar FogSequentialForward.fog[46].dispatcher localJobs_class_1 361103
scalar FogSequentialForward.fog[46].server[0] rho 0.55838078260422
scalar FogSequentialForward.fog[46].server[0] congestionRatio 0
scalar FogSequentialForward.fog[46].server[0] totalJobs 361103
scalar FogSequentialForward.fog[46].server[0] droppedJobsQueue 0
scalar FogSequentialForward.fog[46].server[0] droppedJobsTimout 0
scalar FogSequentialForward.fog[46].server[0] droppedJobsSLA 4
scalar FogSequentialForward.fog[46].server[0] droppedJobsTotal 4
scalar FogSequentialForward.fog[47].dispatcher localJobs 359509
scalar FogSequentialForward.fog[47].dispatcher internalJobs 359515
scalar FogSequentialForward.fog[47].dispatcher externalJobs 22
scalar FogSequentialForward.fog[47].dispatcher remoteJobs 28
scalar FogSequentialForward.fog[47].dispatcher probeQueries 0
scalar FogSequentialForward.fog[47].dispatcher probeAnswers 0
scalar FogSequentialForward.fog[47].dispatcher droppedJobsSLA 0
scalar FogSequentialForward.fog[47].dispatcher jobs_class_1 359537
scalar FogSequentialForward.fog[47].dispatcher remoteJobs_class_1 28
scalar FogSequentialForward.fog[47].dispatcher localJobs_class_1 359509
scalar FogSequentialForward.fog[47].server[0] rho 0.5558762550354
scalar FogSequentialForward.fog[47].server[0] congestionRatio 0
scalar FogSequentialForward.fog[47].server[0] totalJobs 359509
scalar FogSequentialForward.fog[47].server[0] droppedJobsQueue 0
scalar FogSequentialForward.fog[47].server[0] droppedJobsTimout 0
scalar FogSequentialForward.fog[47].server[0] droppedJobsSLA 0
scalar FogSequentialForward.fog[47].server[0] droppedJobsTotal 0
scalar FogSequentialForward.fog[48].dispatcher localJobs 360504
scalar FogSequentialForward.fog[48].dispatcher internalJobs 360505
scalar FogSequentialForward.fog[48].dispatcher externalJobs 27
scalar FogSequentialForward.fog[48].dispatcher remoteJobs 28
scalar FogSequentialForward.fog[48].dispatcher probeQueries 0
scalar FogSequentialForward.fog[48].dispatcher probeAnswers 0
scalar FogSequentialForward.fog[48].dispatcher droppedJobsSLA 0
scalar FogSequentialForward.fog[48].dispatcher jobs_class_1 360532
scalar FogSequentialForward.fog[48].dispatcher remoteJobs_class_1 28
scalar FogSequentialForward.fog[48].dispatcher localJobs_class_1 360504
scalar FogSequentialForward.fog[48].server[0] rho 0.55745524168015
scalar FogSequentialForward.fog[48].server[0] congestionRatio 0
scalar FogSequentialForward.fog[48].server[0] totalJobs 360504
scalar FogSequentialForward.fog[48].server[0] droppedJobsQueue 0
scalar FogSequentialForward.fog[48].server[0] droppedJobsTimout 0
scalar FogSequentialForward.fog[48].server[0] droppedJobsSLA 1
scalar FogSequentialForward.fog[48].server[0] droppedJobsTotal 1
scalar FogSequentialForward.fog[49].dispatcher localJobs 360832
scalar FogSequentialForward.fog[49].dispatcher internalJobs 360818
scalar FogSequentialForward.fog[49].dispatcher externalJobs 41
scalar FogSequentialForward.fog[49].dispatcher remoteJobs 27
scalar FogSequentialForward.fog[49].dispatcher probeQueries 0
scalar FogSequentialForward.fog[49].dispatcher probeAnswers 0
scalar FogSequentialForward.fog[49].dispatcher droppedJobsSLA 0
scalar FogSequentialForward.fog[49].dispatcher jobs_class_1 360859
scalar FogSequentialForward.fog[49].dispatcher remoteJobs_class_1 27
scalar FogSequentialForward.fog[49].dispatcher localJobs_class_1 360832
scalar FogSequentialForward.fog[49].server[0] rho 0.55795925855637
scalar FogSequentialForward.fog[49].server[0] congestionRatio 0
scalar FogSequentialForward.fog[49].server[0] totalJobs 360832
scalar FogSequentialForward.fog[49].server[0] droppedJobsQueue 0
scalar FogSequentialForward.fog[49].server[0] droppedJobsTimout 0
scalar FogSequentialForward.fog[49].server[0] droppedJobsSLA 1
scalar FogSequentialForward.fog[49].server[0] droppedJobsTotal 1
scalar FogSequentialForward.fog[50].dispatcher localJobs 359707
scalar FogSequentialForward.fog[50].dispatcher internalJobs 359713
scalar FogSequentialForward.fog[50].dispatcher externalJobs 40
scalar FogSequentialForward.fog[50].dispatcher remoteJobs 46
scalar FogSequentialForward.fog[50].dispatcher probeQueries 0
scalar FogSequentialForward.fog[50].dispatcher probeAnswers 0
scalar FogSequentialForward.fog[50].dispatcher droppedJobsSLA 0
scalar FogSequentialForward.fog[50].dispatcher jobs_class_1 359753
scalar FogSequentialForward.fog[50].dispatcher remoteJobs_class_1 46
scalar FogSequentialForward.fog[50].dispatcher localJobs_class_1 359707
scalar FogSequentialForward.fog[50].server[0] rho 0.55618345737457
scalar FogSequentialForward.fog[50].server[0] congestionRatio 0
scalar FogSequentialForward.fog[50].server[0] totalJobs 359707
scalar FogSequentialForward.fog[50].server[0] droppedJobsQueue 0
scalar FogSequentialForward.fog[50].server[0] droppedJobsTimout 0
scalar FogSequentialForward.fog[50].server[0] droppedJobsSLA 0
scalar FogSequentialForward.fog[50].server[0] droppedJobsTotal 0
scalar FogSequentialForward.fog[51].dispatcher localJobs 360098
scalar FogSequentialForward.fog[51].dispatcher internalJobs 360102
scalar FogSequentialForward.fog[51].dispatcher externalJobs 30
scalar FogSequentialForward.fog[51].dispatcher remoteJobs 34
scalar FogSequentialForward.fog[51].dispatcher probeQueries 0
scalar FogSequentialForward.fog[51].dispatcher probeAnswers 0
scalar FogSequentialForward.fog[51].dispatcher droppedJobsSLA 0
scalar FogSequentialForward.fog[51].dispatcher jobs_class_1 360132
scalar FogSequentialForward.fog[51].dispatcher remoteJobs_class_1 34
scalar FogSequentialForward.fog[51].dispatcher localJobs_class_1 360098
scalar FogSequentialForward.fog[51].server[0] rho 0.55680453777313
scalar FogSequentialForward.fog[51].server[0] congestionRatio 0
scalar FogSequentialForward.fog[51].server[0] totalJobs 360098
scalar FogSequentialForward.fog[51].server[0] droppedJobsQueue 0
scalar FogSequentialForward.fog[51].server[0] droppedJobsTimout 0
scalar FogSequentialForward.fog[51].server[0] droppedJobsSLA 1
scalar FogSequentialForward.fog[51].server[0] droppedJobsTotal 1
scalar FogSequentialForward.fog[52].dispatcher localJobs 360832
scalar FogSequentialForward.fog[52].dispatcher internalJobs 360842
scalar FogSequentialForward.fog[52].dispatcher externalJobs 28
scalar FogSequentialForward.fog[52].dispatcher remoteJobs 38
scalar FogSequentialForward.fog[52].dispatcher probeQueries 0
scalar FogSequentialForward.fog[52].dispatcher probeAnswers 0
scalar FogSequentialForward.fog[52].dispatcher droppedJobsSLA 0
scalar FogSequentialForward.fog[52].dispatcher jobs_class_1 360870
scalar FogSequentialForward.fog[52].dispatcher remoteJobs_class_1 38
scalar FogSequentialForward.fog[52].dispatcher localJobs_class_1 360832
scalar FogSequentialForward.fog[52].server[0] rho 0.55794596672058
scalar FogSequentialForward.fog[52].server[0] congestionRatio 0
scalar FogSequentialForward.fog[52].server[0] totalJobs 360832
scalar FogSequentialForward.fog[52].server[0] droppedJobsQueue 0
scalar FogSequentialForward.fog[52].server[0] droppedJobsTimout 0
scalar FogSequentialForward.fog[52].server[0] droppedJobsSLA 3
scalar FogSequentialForward.fog[52].server[0] droppedJobsTotal 3
scalar FogSequentialForward.fog[53].dispatcher localJobs 360806
scalar FogSequentialForward.fog[53].dispatcher internalJobs 360805
scalar FogSequentialForward.fog[53].dispatcher externalJobs 39
scalar FogSequentialForward.fog[53].dispatcher remoteJobs 38
scalar FogSequentialForward.fog[53].dispatcher probeQueries 0
scalar FogSequentialForward.fog[53].dispatcher probeAnswers 0
scalar FogSequentialForward.fog[53].dispatcher droppedJobsSLA 0
scalar FogSequentialForward.fog[53].dispatcher jobs_class_1 360844
scalar FogSequentialForward.fog[53].dispatcher remoteJobs_class_1 38
scalar FogSequentialForward.fog[53].dispatcher localJobs_class_1 360806
scalar FogSequentialForward.fog[53].server[0] rho 0.55790954828262
scalar FogSequentialForward.fog[53].server[0] congestionRatio 0
scalar FogSequentialForward.fog[53].server[0] totalJobs 360806
scalar FogSequentialForward.fog[53].server[0] droppedJobsQueue 0
scalar FogSequentialForward.fog[53].server[0] droppedJobsTimout 0
scalar FogSequentialForward.fog[53].server[0] droppedJobsSLA 2
scalar FogSequentialForward.fog[53].server[0] droppedJobsTotal 2
scalar FogSequentialForward.fog[54].dispatcher localJobs 361035
scalar FogSequentialForward.fog[54].dispatcher internalJobs 361037
scalar FogSequentialForward.fog[54].dispatcher externalJobs 32
scalar FogSequentialForward.fog[54].dispatcher remoteJobs 34
scalar FogSequentialForward.fog[54].dispatcher probeQueries 0
scalar FogSequentialForward.fog[54].dispatcher probeAnswers 0
scalar FogSequentialForward.fog[54].dispatcher droppedJobsSLA 0
scalar FogSequentialForward.fog[54].dispatcher jobs_class_1 361069
scalar FogSequentialForward.fog[54].dispatcher remoteJobs_class_1 34
scalar FogSequentialForward.fog[54].dispatcher localJobs_class_1 361035
scalar FogSequentialForward.fog[54].server[0] rho 0.55827552080154
scalar FogSequentialForward.fog[54].server[0] congestionRatio 0
scalar FogSequentialForward.fog[54].server[0] totalJobs 361035
scalar FogSequentialForward.fog[54].server[0] droppedJobsQueue 0
scalar FogSequentialForward.fog[54].server[0] droppedJobsTimout 0
scalar FogSequentialForward.fog[54].server[0] droppedJobsSLA 2
scalar FogSequentialForward.fog[54].server[0] droppedJobsTotal 2
scalar FogSequentialForward.fog[55].dispatcher localJobs 360597
scalar FogSequentialForward.fog[55].dispatcher internalJobs 360596
scalar FogSequentialForward.fog[55].dispatcher externalJobs 26
scalar FogSequentialForward.fog[55].dispatcher remoteJobs 25
scalar FogSequentialForward.fog[55].dispatcher probeQueries 0
scalar FogSequentialForward.fog[55].dispatcher probeAnswers 0
scalar FogSequentialForward.fog[55].dispatcher droppedJobsSLA 0
scalar FogSequentialForward.fog[55].dispatcher jobs_class_1 360622
scalar FogSequentialForward.fog[55].dispatcher remoteJobs_class_1 25
scalar FogSequentialForward.fog[55].dispatcher localJobs_class_1 360597
scalar FogSequentialForward.fog[55].server[0] rho 0.55756139755249
scalar FogSequentialForward.fog[55].server[0] congestionRatio 0
scalar FogSequentialForward.fog[55].server[0] totalJobs 360597
scalar FogSequentialForward.fog[55].server[0] droppedJobsQueue 0
scalar FogSequentialForward.fog[55].server[0] droppedJobsTimout 0
scalar FogSequentialForward.fog[55].server[0] droppedJobsSLA 0
scalar FogSequentialForward.fog[55].server[0] droppedJobsTotal 0
scalar FogSequentialForward.fog[56].dispatcher localJobs 360945
scalar FogSequentialForward.fog[56].dispatcher internalJobs 360946
scalar FogSequentialForward.fog[56].dispatcher externalJobs 29
scalar FogSequentialForward.fog[56].dispatcher remoteJobs 30
scalar FogSequentialForward.fog[56].dispatcher probeQueries 0
scalar FogSequentialForward.fog[56].dispatcher probeAnswers 0
scalar FogSequentialForward.fog[56].dispatcher droppedJobsSLA 0
scalar FogSequentialForward.fog[56].dispatcher jobs_class_1 360975
scalar FogSequentialForward.fog[56].dispatcher remoteJobs_class_1 30
scalar FogSequentialForward.fog[56].dispatcher localJobs_class_1 360945
scalar FogSequentialForward.fog[56].server[0] rho 0.55811023712158
scalar FogSequentialForward.fog[56].server[0] congestionRatio 0
scalar FogSequentialForward.fog[56].server[0] totalJobs 360945
scalar FogSequentialForward.fog[56].server[0] droppedJobsQueue 0
scalar FogSequentialForward.fog[56].server[0] droppedJobsTimout 0
scalar FogSequentialForward.fog[56].server[0] droppedJobsSLA 3
scalar FogSequentialForward.fog[56].server[0] droppedJobsTotal 3
scalar FogSequentialForward.fog[57].dispatcher localJobs 361578
scalar FogSequentialForward.fog[57].dispatcher internalJobs 361581
scalar FogSequentialForward.fog[57].dispatcher externalJobs 39
scalar FogSequentialForward.fog[57].dispatcher remoteJobs 42
scalar FogSequentialForward.fog[57].dispatcher probeQueries 0
scalar FogSequentialForward.fog[57].dispatcher probeAnswers 0
scalar FogSequentialForward.fog[57].dispatcher droppedJobsSLA 0
scalar FogSequentialForward.fog[57].dispatcher jobs_class_1 361620
scalar FogSequentialForward.fog[57].dispatcher remoteJobs_class_1 42
scalar FogSequentialForward.fog[57].dispatcher localJobs_class_1 361578
scalar FogSequentialForward.fog[57].server[0] rho 0.55915021896362
scalar FogSequentialForward.fog[57].server[0] congestionRatio 0
scalar FogSequentialForward.fog[57].server[0] totalJobs 361578
scalar FogSequentialForward.fog[57].server[0] droppedJobsQueue 0
scalar FogSequentialForward.fog[57].server[0] droppedJobsTimout 0
scalar FogSequentialForward.fog[57].server[0] droppedJobsSLA 0
scalar FogSequentialForward.fog[57].server[0] droppedJobsTotal 0
scalar FogSequentialForward.fog[58].dispatcher localJobs 361794
scalar FogSequentialForward.fog[58].dispatcher internalJobs 361781
scalar FogSequentialForward.fog[58].dispatcher externalJobs 38
scalar FogSequentialForward.fog[58].dispatcher remoteJobs 25
scalar FogSequentialForward.fog[58].dispatcher probeQueries 0
scalar FogSequentialForward.fog[58].dispatcher probeAnswers 0
scalar FogSequentialForward.fog[58].dispatcher droppedJobsSLA 0
scalar FogSequentialForward.fog[58].dispatcher jobs_class_1 361819
scalar FogSequentialForward.fog[58].dispatcher remoteJobs_class_1 25
scalar FogSequentialForward.fog[58].dispatcher localJobs_class_1 361794
scalar FogSequentialForward.fog[58].server[0] rho 0.55945521593094
scalar FogSequentialForward.fog[58].server[0] congestionRatio 0
scalar FogSequentialForward.fog[58].server[0] totalJobs 361794
scalar FogSequentialForward.fog[58].server[0] droppedJobsQueue 0
scalar FogSequentialForward.fog[58].server[0] droppedJobsTimout 0
scalar FogSequentialForward.fog[58].server[0] droppedJobsSLA 3
scalar FogSequentialForward.fog[58].server[0] droppedJobsTotal 3
scalar FogSequentialForward.fog[59].dispatcher localJobs 360625
scalar FogSequentialForward.fog[59].dispatcher internalJobs 360623
scalar FogSequentialForward.fog[59].dispatcher externalJobs 29
scalar FogSequentialForward.fog[59].dispatcher remoteJobs 27
scalar FogSequentialForward.fog[59].dispatcher probeQueries 0
scalar FogSequentialForward.fog[59].dispatcher probeAnswers 0
scalar FogSequentialForward.fog[59].dispatcher droppedJobsSLA 0
scalar FogSequentialForward.fog[59].dispatcher jobs_class_1 360652
scalar FogSequentialForward.fog[59].dispatcher remoteJobs_class_1 27
scalar FogSequentialForward.fog[59].dispatcher localJobs_class_1 360625
scalar FogSequentialForward.fog[59].server[0] rho 0.55766063928604
scalar FogSequentialForward.fog[59].server[0] congestionRatio 0
scalar FogSequentialForward.fog[59].server[0] totalJobs 360625
scalar FogSequentialForward.fog[59].server[0] droppedJobsQueue 0
scalar FogSequentialForward.fog[59].server[0] droppedJobsTimout 0
scalar FogSequentialForward.fog[59].server[0] droppedJobsSLA 1
scalar FogSequentialForward.fog[59].server[0] droppedJobsTotal 1
scalar FogSequentialForward.fog[60].dispatcher localJobs 360624
scalar FogSequentialForward.fog[60].dispatcher internalJobs 360639
scalar FogSequentialForward.fog[60].dispatcher externalJobs 26
scalar FogSequentialForward.fog[60].dispatcher remoteJobs 41
scalar FogSequentialForward.fog[60].dispatcher probeQueries 0
scalar FogSequentialForward.fog[60].dispatcher probeAnswers 0
scalar FogSequentialForward.fog[60].dispatcher droppedJobsSLA 0
scalar FogSequentialForward.fog[60].dispatcher jobs_class_1 360665
scalar FogSequentialForward.fog[60].dispatcher remoteJobs_class_1 41
scalar FogSequentialForward.fog[60].dispatcher localJobs_class_1 360624
scalar FogSequentialForward.fog[60].server[0] rho 0.55763381719589
scalar FogSequentialForward.fog[60].server[0] congestionRatio 0
scalar FogSequentialForward.fog[60].server[0] totalJobs 360624
scalar FogSequentialForward.fog[60].server[0] droppedJobsQueue 0
scalar FogSequentialForward.fog[60].server[0] droppedJobsTimout 0
scalar FogSequentialForward.fog[60].server[0] droppedJobsSLA 1
scalar FogSequentialForward.fog[60].server[0] droppedJobsTotal 1
scalar FogSequentialForward.fog[61].dispatcher localJobs 360578
scalar FogSequentialForward.fog[61].dispatcher internalJobs 360555
scalar FogSequentialForward.fog[61].dispatcher externalJobs 37
scalar FogSequentialForward.fog[61].dispatcher remoteJobs 14
scalar FogSequentialForward.fog[61].dispatcher probeQueries 0
scalar FogSequentialForward.fog[61].dispatcher probeAnswers 0
scalar FogSequentialForward.fog[61].dispatcher droppedJobsSLA 0
scalar FogSequentialForward.fog[61].dispatcher jobs_class_1 360592
scalar FogSequentialForward.fog[61].dispatcher remoteJobs_class_1 14
scalar FogSequentialForward.fog[61].dispatcher localJobs_class_1 360578
scalar FogSequentialForward.fog[61].server[0] rho 0.5575607419014
scalar FogSequentialForward.fog[61].server[0] congestionRatio 0
scalar FogSequentialForward.fog[61].server[0] totalJobs 360578
scalar FogSequentialForward.fog[61].server[0] droppedJobsQueue 0
scalar FogSequentialForward.fog[61].server[0] droppedJobsTimout 0
scalar FogSequentialForward.fog[61].server[0] droppedJobsSLA 2
scalar FogSequentialForward.fog[61].server[0] droppedJobsTotal 2
scalar FogSequentialForward.fog[62].dispatcher localJobs 360781
scalar FogSequentialForward.fog[62].dispatcher internalJobs 360781
scalar FogSequentialForward.fog[62].dispatcher externalJobs 27
scalar FogSequentialForward.fog[62].dispatcher remoteJobs 27
scalar FogSequentialForward.fog[62].dispatcher probeQueries 0
scalar FogSequentialForward.fog[62].dispatcher probeAnswers 0
scalar FogSequentialForward.fog[62].dispatcher droppedJobsSLA 0
scalar FogSequentialForward.fog[62].dispatcher jobs_class_1 360808
scalar FogSequentialForward.fog[62].dispatcher remoteJobs_class_1 27
scalar FogSequentialForward.fog[62].dispatcher localJobs_class_1 360781
scalar FogSequentialForward.fog[62].server[0] rho 0.55789935588837
scalar FogSequentialForward.fog[62].server[0] congestionRatio 0
scalar FogSequentialForward.fog[62].server[0] totalJobs 360781
scalar FogSequentialForward.fog[62].server[0] droppedJobsQueue 0
scalar FogSequentialForward.fog[62].server[0] droppedJobsTimout 0
scalar FogSequentialForward.fog[62].server[0] droppedJobsSLA 0
scalar FogSequentialForward.fog[62].server[0] droppedJobsTotal 0
scalar FogSequentialForward.fog[63].dispatcher localJobs 360099
scalar FogSequentialForward.fog[63].dispatcher internalJobs 360120
scalar FogSequentialForward.fog[63].dispatcher externalJobs 28
scalar FogSequentialForward.fog[63].dispatcher remoteJobs 49
scalar FogSequentialForward.fog[63].dispatcher probeQueries 0
scalar FogSequentialForward.fog[63].dispatcher probeAnswers 0
scalar FogSequentialForward.fog[63].dispatcher droppedJobsSLA 0
scalar FogSequentialForward.fog[63].dispatcher jobs_class_1 360148
scalar FogSequentialForward.fog[63].dispatcher remoteJobs_class_1 49
scalar FogSequentialForward.fog[63].dispatcher localJobs_class_1 360099
scalar FogSequentialForward.fog[63].server[0] rho 0.55680406093597
scalar FogSequentialForward.fog[63].server[0] congestionRatio 0
scalar FogSequentialForward.fog[63].server[0] totalJobs 360099
scalar FogSequentialForward.fog[63].server[0] droppedJobsQueue 0
scalar FogSequentialForward.fog[63].server[0] droppedJobsTimout 0
scalar FogSequentialForward.fog[63].server[0] droppedJobsSLA 1
scalar FogSequentialForward.fog[63].server[0] droppedJobsTotal 1
scalar FogSequentialForward.fog[64].dispatcher localJobs 360708
scalar FogSequentialForward.fog[64].dispatcher internalJobs 360709
scalar FogSequentialForward.fog[64].dispatcher externalJobs 28
scalar FogSequentialForward.fog[64].dispatcher remoteJobs 29
scalar FogSequentialForward.fog[64].dispatcher probeQueries 0
scalar FogSequentialForward.fog[64].dispatcher probeAnswers 0
scalar FogSequentialForward.fog[64].dispatcher droppedJobsSLA 0
scalar FogSequentialForward.fog[64].dispatcher jobs_class_1 360737
scalar FogSequentialForward.fog[64].dispatcher remoteJobs_class_1 29
scalar FogSequentialForward.fog[64].dispatcher localJobs_class_1 360708
scalar FogSequentialForward.fog[64].server[0] rho 0.55775362253189
scalar FogSequentialForward.fog[64].server[0] congestionRatio 0
scalar FogSequentialForward.fog[64].server[0] totalJobs 360708
scalar FogSequentialForward.fog[64].server[0] droppedJobsQueue 0
scalar FogSequentialForward.fog[64].server[0] droppedJobsTimout 0
scalar FogSequentialForward.fog[64].server[0] droppedJobsSLA 1
scalar FogSequentialForward.fog[64].server[0] droppedJobsTotal 1
scalar FogSequentialForward.fog[65].dispatcher localJobs 360653
scalar FogSequentialForward.fog[65].dispatcher internalJobs 360658
scalar FogSequentialForward.fog[65].dispatcher externalJobs 33
scalar FogSequentialForward.fog[65].dispatcher remoteJobs 38
scalar FogSequentialForward.fog[65].dispatcher probeQueries 0
scalar FogSequentialForward.fog[65].dispatcher probeAnswers 0
scalar FogSequentialForward.fog[65].dispatcher droppedJobsSLA 0
scalar FogSequentialForward.fog[65].dispatcher jobs_class_1 360691
scalar FogSequentialForward.fog[65].dispatcher remoteJobs_class_1 38
scalar FogSequentialForward.fog[65].dispatcher localJobs_class_1 360653
scalar FogSequentialForward.fog[65].server[0] rho 0.55766987800598
scalar FogSequentialForward.fog[65].server[0] congestionRatio 0
scalar FogSequentialForward.fog[65].server[0] totalJobs 360653
scalar FogSequentialForward.fog[65].server[0] droppedJobsQueue 0
scalar FogSequentialForward.fog[65].server[0] droppedJobsTimout 0
scalar FogSequentialForward.fog[65].server[0] droppedJobsSLA 3
scalar FogSequentialForward.fog[65].server[0] droppedJobsTotal 3
scalar FogSequentialForward.fog[66].dispatcher localJobs 360356
scalar FogSequentialForward.fog[66].dispatcher internalJobs 360366
scalar FogSequentialForward.fog[66].dispatcher externalJobs 29
scalar FogSequentialForward.fog[66].dispatcher remoteJobs 39
scalar FogSequentialForward.fog[66].dispatcher probeQueries 0
scalar FogSequentialForward.fog[66].dispatcher probeAnswers 0
scalar FogSequentialForward.fog[66].dispatcher droppedJobsSLA 0
scalar FogSequentialForward.fog[66].dispatcher jobs_class_1 360395
scalar FogSequentialForward.fog[66].dispatcher remoteJobs_class_1 39
scalar FogSequentialForward.fog[66].dispatcher localJobs_class_1 360356
scalar FogSequentialForward.fog[66].server[0] rho 0.55722111463547
scalar FogSequentialForward.fog[66].server[0] congestionRatio 0
scalar FogSequentialForward.fog[66].server[0] totalJobs 360356
scalar FogSequentialForward.fog[66].server[0] droppedJobsQueue 0
scalar FogSequentialForward.fog[66].server[0] droppedJobsTimout 0
scalar FogSequentialForward.fog[66].server[0] droppedJobsSLA 2
scalar FogSequentialForward.fog[66].server[0] droppedJobsTotal 2
scalar FogSequentialForward.fog[67].dispatcher localJobs 360148
scalar FogSequentialForward.fog[67].dispatcher internalJobs 360150
scalar FogSequentialForward.fog[67].dispatcher externalJobs 30
scalar FogSequentialForward.fog[67].dispatcher remoteJobs 32
scalar FogSequentialForward.fog[67].dispatcher probeQueries 0
scalar FogSequentialForward.fog[67].dispatcher probeAnswers 0
scalar FogSequentialForward.fog[67].dispatcher droppedJobsSLA 0
scalar FogSequentialForward.fog[67].dispatcher jobs_class_1 360180
scalar FogSequentialForward.fog[67].dispatcher remoteJobs_class_1 32
scalar FogSequentialForward.fog[67].dispatcher localJobs_class_1 360148
scalar FogSequentialForward.fog[67].server[0] rho 0.55686682462692
scalar FogSequentialForward.fog[67].server[0] congestionRatio 0
scalar FogSequentialForward.fog[67].server[0] totalJobs 360148
scalar FogSequentialForward.fog[67].server[0] droppedJobsQueue 0
scalar FogSequentialForward.fog[67].server[0] droppedJobsTimout 0
scalar FogSequentialForward.fog[67].server[0] droppedJobsSLA 1
scalar FogSequentialForward.fog[67].server[0] droppedJobsTotal 1
scalar FogSequentialForward.fog[68].dispatcher localJobs 360678
scalar FogSequentialForward.fog[68].dispatcher internalJobs 360676
scalar FogSequentialForward.fog[68].dispatcher externalJobs 36
scalar FogSequentialForward.fog[68].dispatcher remoteJobs 34
scalar FogSequentialForward.fog[68].dispatcher probeQueries 0
scalar FogSequentialForward.fog[68].dispatcher probeAnswers 0
scalar FogSequentialForward.fog[68].dispatcher droppedJobsSLA 0
scalar FogSequentialForward.fog[68].dispatcher jobs_class_1 360712
scalar FogSequentialForward.fog[68].dispatcher remoteJobs_class_1 34
scalar FogSequentialForward.fog[68].dispatcher localJobs_class_1 360678
scalar FogSequentialForward.fog[68].server[0] rho 0.5577175617218
scalar FogSequentialForward.fog[68].server[0] congestionRatio 0
scalar FogSequentialForward.fog[68].server[0] totalJobs 360678
scalar FogSequentialForward.fog[68].server[0] droppedJobsQueue 0
scalar FogSequentialForward.fog[68].server[0] droppedJobsTimout 0
scalar FogSequentialForward.fog[68].server[0] droppedJobsSLA 0
scalar FogSequentialForward.fog[68].server[0] droppedJobsTotal 0
scalar FogSequentialForward.fog[69].dispatcher localJobs 361555
scalar FogSequentialForward.fog[69].dispatcher internalJobs 361551
scalar FogSequentialForward.fog[69].dispatcher externalJobs 36
scalar FogSequentialForward.fog[69].dispatcher remoteJobs 32
scalar FogSequentialForward.fog[69].dispatcher probeQueries 0
scalar FogSequentialForward.fog[69].dispatcher probeAnswers 0
scalar FogSequentialForward.fog[69].dispatcher droppedJobsSLA 0
scalar FogSequentialForward.fog[69].dispatcher jobs_class_1 361587
scalar FogSequentialForward.fog[69].dispatcher remoteJobs_class_1 32
scalar FogSequentialForward.fog[69].dispatcher localJobs_class_1 361555
scalar FogSequentialForward.fog[69].server[0] rho 0.55906766653061
scalar FogSequentialForward.fog[69].server[0] congestionRatio 0
scalar FogSequentialForward.fog[69].server[0] totalJobs 361555
scalar FogSequentialForward.fog[69].server[0] droppedJobsQueue 0
scalar FogSequentialForward.fog[69].server[0] droppedJobsTimout 0
scalar FogSequentialForward.fog[69].server[0] droppedJobsSLA 0
scalar FogSequentialForward.fog[69].server[0] droppedJobsTotal 0
scalar FogSequentialForward.fog[70].dispatcher localJobs 360927
scalar FogSequentialForward.fog[70].dispatcher internalJobs 360919
scalar FogSequentialForward.fog[70].dispatcher externalJobs 31
scalar FogSequentialForward.fog[70].dispatcher remoteJobs 23
scalar FogSequentialForward.fog[70].dispatcher probeQueries 0
scalar FogSequentialForward.fog[70].dispatcher probeAnswers 0
scalar FogSequentialForward.fog[70].dispatcher droppedJobsSLA 0
scalar FogSequentialForward.fog[70].dispatcher jobs_class_1 360950
scalar FogSequentialForward.fog[70].dispatcher remoteJobs_class_1 23
scalar FogSequentialForward.fog[70].dispatcher localJobs_class_1 360927
scalar FogSequentialForward.fog[70].server[0] rho 0.5580763220787
scalar FogSequentialForward.fog[70].server[0] congestionRatio 0
scalar FogSequentialForward.fog[70].server[0] totalJobs 360927
scalar FogSequentialForward.fog[70].server[0] droppedJobsQueue 0
scalar FogSequentialForward.fog[70].server[0] droppedJobsTimout 0
scalar FogSequentialForward.fog[70].server[0] droppedJobsSLA 0
scalar FogSequentialForward.fog[70].server[0] droppedJobsTotal 0
scalar FogSequentialForward.fog[71].dispatcher localJobs 360645
scalar FogSequentialForward.fog[71].dispatcher internalJobs 360646
scalar FogSequentialForward.fog[71].dispatcher externalJobs 45
scalar FogSequentialForward.fog[71].dispatcher remoteJobs 46
scalar FogSequentialForward.fog[71].dispatcher probeQueries 0
scalar FogSequentialForward.fog[71].dispatcher probeAnswers 0
scalar FogSequentialForward.fog[71].dispatcher droppedJobsSLA 0
scalar FogSequentialForward.fog[71].dispatcher jobs_class_1 360691
[...]
scalar FogSequentialForward.fog[82].server[0] droppedJobsSLA 1
scalar FogSequentialForward.fog[82].server[0] droppedJobsTotal 1
scalar FogSequentialForward.fog[83].dispatcher localJobs 361443
scalar FogSequentialForward.fog[83].dispatcher internalJobs 361444
scalar FogSequentialForward.fog[83].dispatcher externalJobs 31
scalar FogSequentialForward.fog[83].dispatcher remoteJobs 32
scalar FogSequentialForward.fog[83].dispatcher probeQueries 0
scalar FogSequentialForward.fog[83].dispatcher probeAnswers 0
scalar FogSequentialForward.fog[83].dispatcher droppedJobsSLA 0
scalar FogSequentialForward.fog[83].dispatcher jobs_class_1 361475
scalar FogSequentialForward.fog[83].dispatcher remoteJobs_class_1 32
scalar FogSequentialForward.fog[83].dispatcher localJobs_class_1 361443
scalar FogSequentialForward.fog[83].server[0] rho 0.55887764692307
scalar FogSequentialForward.fog[83].server[0] congestionRatio 0
scalar FogSequentialForward.fog[83].server[0] totalJobs 361443
scalar FogSequentialForward.fog[83].server[0] droppedJobsQueue 0
scalar FogSequentialForward.fog[83].server[0] droppedJobsTimout 0
scalar FogSequentialForward.fog[83].server[0] droppedJobsSLA 0
scalar FogSequentialForward.fog[83].server[0] droppedJobsTotal 0
scalar FogSequentialForward.fog[84].dispatcher localJobs 361339
scalar FogSequentialForward.fog[84].dispatcher internalJobs 361337
scalar FogSequentialForward.fog[84].dispatcher externalJobs 42
scalar FogSequentialForward.fog[84].dispatcher remoteJobs 40
scalar FogSequentialForward.fog[84].dispatcher probeQueries 0
scalar FogSequentialForward.fog[84].dispatcher probeAnswers 0
scalar FogSequentialForward.fog[84].dispatcher droppedJobsSLA 0
scalar FogSequentialForward.fog[84].dispatcher jobs_class_1 361379
scalar FogSequentialForward.fog[84].dispatcher remoteJobs_class_1 40
scalar FogSequentialForward.fog[84].dispatcher localJobs_class_1 361339
scalar FogSequentialForward.fog[84].server[0] rho 0.55872517824173
scalar FogSequentialForward.fog[84].server[0] congestionRatio 0
scalar FogSequentialForward.fog[84].server[0] totalJobs 361339
scalar FogSequentialForward.fog[84].server[0] droppedJobsQueue 0
scalar FogSequentialForward.fog[84].server[0] droppedJobsTimout 0
scalar FogSequentialForward.fog[84].server[0] droppedJobsSLA 0
scalar FogSequentialForward.fog[84].server[0] droppedJobsTotal 0
scalar FogSequentialForward.fog[85].dispatcher localJobs 359912
scalar FogSequentialForward.fog[85].dispatcher internalJobs 359922
scalar FogSequentialForward.fog[85].dispatcher externalJobs 23
scalar FogSequentialForward.fog[85].dispatcher remoteJobs 33
scalar FogSequentialForward.fog[85].dispatcher probeQueries 0
scalar FogSequentialForward.fog[85].dispatcher probeAnswers 0
scalar FogSequentialForward.fog[85].dispatcher droppedJobsSLA 0
scalar FogSequentialForward.fog[85].dispatcher jobs_class_1 359945
scalar FogSequentialForward.fog[85].dispatcher remoteJobs_class_1 33
scalar FogSequentialForward.fog[85].dispatcher localJobs_class_1 359912
scalar FogSequentialForward.fog[85].server[0] rho 0.55653804540634
scalar FogSequentialForward.fog[85].server[0] congestionRatio 0
scalar FogSequentialForward.fog[85].server[0] totalJobs 359912
scalar FogSequentialForward.fog[85].server[0] droppedJobsQueue 0
scalar FogSequentialForward.fog[85].server[0] droppedJobsTimout 0
scalar FogSequentialForward.fog[85].server[0] droppedJobsSLA 1
scalar FogSequentialForward.fog[85].server[0] droppedJobsTotal 1
scalar FogSequentialForward.fog[86].dispatcher localJobs 361429
scalar FogSequentialForward.fog[86].dispatcher internalJobs 361423
scalar FogSequentialForward.fog[86].dispatcher externalJobs 41
scalar FogSequentialForward.fog[86].dispatcher remoteJobs 35
scalar FogSequentialForward.fog[86].dispatcher probeQueries 0
scalar FogSequentialForward.fog[86].dispatcher probeAnswers 0
scalar FogSequentialForward.fog[86].dispatcher droppedJobsSLA 0
scalar FogSequentialForward.fog[86].dispatcher jobs_class_1 361464
scalar FogSequentialForward.fog[86].dispatcher remoteJobs_class_1 35
scalar FogSequentialForward.fog[86].dispatcher localJobs_class_1 361429
scalar FogSequentialForward.fog[86].server[0] rho 0.55888020992279
scalar FogSequentialForward.fog[86].server[0] congestionRatio 0
scalar FogSequentialForward.fog[86].server[0] totalJobs 361429
scalar FogSequentialForward.fog[86].server[0] droppedJobsQueue 0
scalar FogSequentialForward.fog[86].server[0] droppedJobsTimout 0
scalar FogSequentialForward.fog[86].server[0] droppedJobsSLA 0
scalar FogSequentialForward.fog[86].server[0] droppedJobsTotal 0
scalar FogSequentialForward.fog[87].dispatcher localJobs 359923
scalar FogSequentialForward.fog[87].dispatcher internalJobs 359915
scalar FogSequentialForward.fog[87].dispatcher externalJobs 42
scalar FogSequentialForward.fog[87].dispatcher remoteJobs 34
scalar FogSequentialForward.fog[87].dispatcher probeQueries 0
scalar FogSequentialForward.fog[87].dispatcher probeAnswers 0
scalar FogSequentialForward.fog[87].dispatcher droppedJobsSLA 0
scalar FogSequentialForward.fog[87].dispatcher jobs_class_1 359957
scalar FogSequentialForward.fog[87].dispatcher remoteJobs_class_1 34
scalar FogSequentialForward.fog[87].dispatcher localJobs_class_1 359923
scalar FogSequentialForward.fog[87].server[0] rho 0.55654430389404
scalar FogSequentialForward.fog[87].server[0] congestionRatio 0
scalar FogSequentialForward.fog[87].server[0] totalJobs 359923
scalar FogSequentialForward.fog[87].server[0] droppedJobsQueue 0
scalar FogSequentialForward.fog[87].server[0] droppedJobsTimout 0
scalar FogSequentialForward.fog[87].server[0] droppedJobsSLA 0
scalar FogSequentialForward.fog[87].server[0] droppedJobsTotal 0
scalar FogSequentialForward.fog[88].dispatcher localJobs 361102
scalar FogSequentialForward.fog[88].dispatcher internalJobs 361100
scalar FogSequentialForward.fog[88].dispatcher externalJobs 39
scalar FogSequentialForward.fog[88].dispatcher remoteJobs 37
scalar FogSequentialForward.fog[88].dispatcher probeQueries 0
scalar FogSequentialForward.fog[88].dispatcher probeAnswers 0
scalar FogSequentialForward.fog[88].dispatcher droppedJobsSLA 0
scalar FogSequentialForward.fog[88].dispatcher jobs_class_1 361139
scalar FogSequentialForward.fog[88].dispatcher remoteJobs_class_1 37
scalar FogSequentialForward.fog[88].dispatcher localJobs_class_1 361102
scalar FogSequentialForward.fog[88].server[0] rho 0.5583615899086
scalar FogSequentialForward.fog[88].server[0] congestionRatio 0
scalar FogSequentialForward.fog[88].server[0] totalJobs 361102
scalar FogSequentialForward.fog[88].server[0] droppedJobsQueue 0
scalar FogSequentialForward.fog[88].server[0] droppedJobsTimout 0
scalar FogSequentialForward.fog[88].server[0] droppedJobsSLA 1
scalar FogSequentialForward.fog[88].server[0] droppedJobsTotal 1
scalar FogSequentialForward.fog[89].dispatcher localJobs 361404
scalar FogSequentialForward.fog[89].dispatcher internalJobs 361402
scalar FogSequentialForward.fog[89].dispatcher externalJobs 33
scalar FogSequentialForward.fog[89].dispatcher remoteJobs 31
scalar FogSequentialForward.fog[89].dispatcher probeQueries 0
scalar FogSequentialForward.fog[89].dispatcher probeAnswers 0
scalar FogSequentialForward.fog[89].dispatcher droppedJobsSLA 0
scalar FogSequentialForward.fog[89].dispatcher jobs_class_1 361435
scalar FogSequentialForward.fog[89].dispatcher remoteJobs_class_1 31
scalar FogSequentialForward.fog[89].dispatcher localJobs_class_1 361404
scalar FogSequentialForward.fog[89].server[0] rho 0.55882078409195
scalar FogSequentialForward.fog[89].server[0] congestionRatio 0
scalar FogSequentialForward.fog[89].server[0] totalJobs 361404
scalar FogSequentialForward.fog[89].server[0] droppedJobsQueue 0
scalar FogSequentialForward.fog[89].server[0] droppedJobsTimout 0
scalar FogSequentialForward.fog[89].server[0] droppedJobsSLA 1
scalar FogSequentialForward.fog[89].server[0] droppedJobsTotal 1
scalar FogSequentialForward.fog[90].dispatcher localJobs 360370
scalar FogSequentialForward.fog[90].dispatcher internalJobs 360364
scalar FogSequentialForward.fog[90].dispatcher externalJobs 30
scalar FogSequentialForward.fog[90].dispatcher remoteJobs 24
scalar FogSequentialForward.fog[90].dispatcher probeQueries 0
scalar FogSequentialForward.fog[90].dispatcher probeAnswers 0
scalar FogSequentialForward.fog[90].dispatcher droppedJobsSLA 0
scalar FogSequentialForward.fog[90].dispatcher jobs_class_1 360394
scalar FogSequentialForward.fog[90].dispatcher remoteJobs_class_1 24
scalar FogSequentialForward.fog[90].dispatcher localJobs_class_1 360370
scalar FogSequentialForward.fog[90].server[0] rho 0.55722588300705
scalar FogSequentialForward.fog[90].server[0] congestionRatio 0
scalar FogSequentialForward.fog[90].server[0] totalJobs 360370
scalar FogSequentialForward.fog[90].server[0] droppedJobsQueue 0
scalar FogSequentialForward.fog[90].server[0] droppedJobsTimout 0
scalar FogSequentialForward.fog[90].server[0] droppedJobsSLA 0
scalar FogSequentialForward.fog[90].server[0] droppedJobsTotal 0
scalar FogSequentialForward.fog[91].dispatcher localJobs 361077
scalar FogSequentialForward.fog[91].dispatcher internalJobs 361077
scalar FogSequentialForward.fog[91].dispatcher externalJobs 35
scalar FogSequentialForward.fog[91].dispatcher remoteJobs 35
scalar FogSequentialForward.fog[91].dispatcher probeQueries 0
scalar FogSequentialForward.fog[91].dispatcher probeAnswers 0
scalar FogSequentialForward.fog[91].dispatcher droppedJobsSLA 0
scalar FogSequentialForward.fog[91].dispatcher jobs_class_1 361112
scalar FogSequentialForward.fog[91].dispatcher remoteJobs_class_1 35
scalar FogSequentialForward.fog[91].dispatcher localJobs_class_1 361077
scalar FogSequentialForward.fog[91].server[0] rho 0.55835050344467
scalar FogSequentialForward.fog[91].server[0] congestionRatio 0
scalar FogSequentialForward.fog[91].server[0] totalJobs 361077
scalar FogSequentialForward.fog[91].server[0] droppedJobsQueue 0
scalar FogSequentialForward.fog[91].server[0] droppedJobsTimout 0
scalar FogSequentialForward.fog[91].server[0] droppedJobsSLA 1
scalar FogSequentialForward.fog[91].server[0] droppedJobsTotal 1
scalar FogSequentialForward.fog[92].dispatcher localJobs 360541
scalar FogSequentialForward.fog[92].dispatcher internalJobs 360565
scalar FogSequentialForward.fog[92].dispatcher externalJobs 34
scalar FogSequentialForward.fog[92].dispatcher remoteJobs 58
scalar FogSequentialForward.fog[92].dispatcher probeQueries 0
scalar FogSequentialForward.fog[92].dispatcher probeAnswers 0
scalar FogSequentialForward.fog[92].dispatcher droppedJobsSLA 0
scalar FogSequentialForward.fog[92].dispatcher jobs_class_1 360599
scalar FogSequentialForward.fog[92].dispatcher remoteJobs_class_1 58
scalar FogSequentialForward.fog[92].dispatcher localJobs_class_1 360541
scalar FogSequentialForward.fog[92].server[0] rho 0.55751955509186
scalar FogSequentialForward.fog[92].server[0] congestionRatio 0
scalar FogSequentialForward.fog[92].server[0] totalJobs 360541
scalar FogSequentialForward.fog[92].server[0] droppedJobsQueue 0
scalar FogSequentialForward.fog[92].server[0] droppedJobsTimout 0
scalar FogSequentialForward.fog[92].server[0] droppedJobsSLA 1
scalar FogSequentialForward.fog[92].server[0] droppedJobsTotal 1
scalar FogSequentialForward.fog[93].dispatcher localJobs 360985
scalar FogSequentialForward.fog[93].dispatcher internalJobs 360978
scalar FogSequentialForward.fog[93].dispatcher externalJobs 37
scalar FogSequentialForward.fog[93].dispatcher remoteJobs 30
scalar FogSequentialForward.fog[93].dispatcher probeQueries 0
scalar FogSequentialForward.fog[93].dispatcher probeAnswers 0
scalar FogSequentialForward.fog[93].dispatcher droppedJobsSLA 0
scalar FogSequentialForward.fog[93].dispatcher jobs_class_1 361015
scalar FogSequentialForward.fog[93].dispatcher remoteJobs_class_1 30
scalar FogSequentialForward.fog[93].dispatcher localJobs_class_1 360985
scalar FogSequentialForward.fog[93].server[0] rho 0.55818611383438
scalar FogSequentialForward.fog[93].server[0] congestionRatio 0
scalar FogSequentialForward.fog[93].server[0] totalJobs 360985
scalar FogSequentialForward.fog[93].server[0] droppedJobsQueue 0
scalar FogSequentialForward.fog[93].server[0] droppedJobsTimout 0
scalar FogSequentialForward.fog[93].server[0] droppedJobsSLA 2
scalar FogSequentialForward.fog[93].server[0] droppedJobsTotal 2
scalar FogSequentialForward.fog[94].dispatcher localJobs 360820
scalar FogSequentialForward.fog[94].dispatcher internalJobs 360819
scalar FogSequentialForward.fog[94].dispatcher externalJobs 29
scalar FogSequentialForward.fog[94].dispatcher remoteJobs 28
scalar FogSequentialForward.fog[94].dispatcher probeQueries 0
scalar FogSequentialForward.fog[94].dispatcher probeAnswers 0
scalar FogSequentialForward.fog[94].dispatcher droppedJobsSLA 0
scalar FogSequentialForward.fog[94].dispatcher jobs_class_1 360848
scalar FogSequentialForward.fog[94].dispatcher remoteJobs_class_1 28
scalar FogSequentialForward.fog[94].dispatcher localJobs_class_1 360820
scalar FogSequentialForward.fog[94].server[0] rho 0.55791276693344
scalar FogSequentialForward.fog[94].server[0] congestionRatio 0
scalar FogSequentialForward.fog[94].server[0] totalJobs 360820
scalar FogSequentialForward.fog[94].server[0] droppedJobsQueue 0
scalar FogSequentialForward.fog[94].server[0] droppedJobsTimout 0
scalar FogSequentialForward.fog[94].server[0] droppedJobsSLA 1
scalar FogSequentialForward.fog[94].server[0] droppedJobsTotal 1
scalar FogSequentialForward.fog[95].dispatcher localJobs 361097
scalar FogSequentialForward.fog[95].dispatcher internalJobs 361098
scalar FogSequentialForward.fog[95].dispatcher externalJobs 34
scalar FogSequentialForward.fog[95].dispatcher remoteJobs 35
scalar FogSequentialForward.fog[95].dispatcher probeQueries 0
scalar FogSequentialForward.fog[95].dispatcher probeAnswers 0
scalar FogSequentialForward.fog[95].dispatcher droppedJobsSLA 0
scalar FogSequentialForward.fog[95].dispatcher jobs_class_1 361132
scalar FogSequentialForward.fog[95].dispatcher remoteJobs_class_1 35
scalar FogSequentialForward.fog[95].dispatcher localJobs_class_1 361097
scalar FogSequentialForward.fog[95].server[0] rho 0.55835044384003
scalar FogSequentialForward.fog[95].server[0] congestionRatio 0
scalar FogSequentialForward.fog[95].server[0] totalJobs 361097
scalar FogSequentialForward.fog[95].server[0] droppedJobsQueue 0
scalar FogSequentialForward.fog[95].server[0] droppedJobsTimout 0
scalar FogSequentialForward.fog[95].server[0] droppedJobsSLA 0
scalar FogSequentialForward.fog[95].server[0] droppedJobsTotal 0
scalar FogSequentialForward.fog[96].dispatcher localJobs 361125
scalar FogSequentialForward.fog[96].dispatcher internalJobs 361126
scalar FogSequentialForward.fog[96].dispatcher externalJobs 33
scalar FogSequentialForward.fog[96].dispatcher remoteJobs 34
scalar FogSequentialForward.fog[96].dispatcher probeQueries 0
scalar FogSequentialForward.fog[96].dispatcher probeAnswers 0
scalar FogSequentialForward.fog[96].dispatcher droppedJobsSLA 0
scalar FogSequentialForward.fog[96].dispatcher jobs_class_1 361159
scalar FogSequentialForward.fog[96].dispatcher remoteJobs_class_1 34
scalar FogSequentialForward.fog[96].dispatcher localJobs_class_1 361125
scalar FogSequentialForward.fog[96].server[0] rho 0.55837947130203
scalar FogSequentialForward.fog[96].server[0] congestionRatio 0
scalar FogSequentialForward.fog[96].server[0] totalJobs 361125
scalar FogSequentialForward.fog[96].server[0] droppedJobsQueue 0
scalar FogSequentialForward.fog[96].server[0] droppedJobsTimout 0
scalar FogSequentialForward.fog[96].server[0] droppedJobsSLA 0
scalar FogSequentialForward.fog[96].server[0] droppedJobsTotal 0
scalar FogSequentialForward.fog[97].dispatcher localJobs 360552
scalar FogSequentialForward.fog[97].dispatcher internalJobs 360564
scalar FogSequentialForward.fog[97].dispatcher externalJobs 38
scalar FogSequentialForward.fog[97].dispatcher remoteJobs 50
scalar FogSequentialForward.fog[97].dispatcher probeQueries 0
scalar FogSequentialForward.fog[97].dispatcher probeAnswers 0
scalar FogSequentialForward.fog[97].dispatcher droppedJobsSLA 0
scalar FogSequentialForward.fog[97].dispatcher jobs_class_1 360602
scalar FogSequentialForward.fog[97].dispatcher remoteJobs_class_1 50
scalar FogSequentialForward.fog[97].dispatcher localJobs_class_1 360552
scalar FogSequentialForward.fog[97].server[0] rho 0.55754888057709
scalar FogSequentialForward.fog[97].server[0] congestionRatio 0
scalar FogSequentialForward.fog[97].server[0] totalJobs 360552
scalar FogSequentialForward.fog[97].server[0] droppedJobsQueue 0
scalar FogSequentialForward.fog[97].server[0] droppedJobsTimout 0
scalar FogSequentialForward.fog[97].server[0] droppedJobsSLA 1
scalar FogSequentialForward.fog[97].server[0] droppedJobsTotal 1
scalar FogSequentialForward.fog[98].dispatcher localJobs 359068
scalar FogSequentialForward.fog[98].dispatcher internalJobs 359082
scalar FogSequentialForward.fog[98].dispatcher externalJobs 30
scalar FogSequentialForward.fog[98].dispatcher remoteJobs 44
scalar FogSequentialForward.fog[98].dispatcher probeQueries 0
scalar FogSequentialForward.fog[98].dispatcher probeAnswers 0
scalar FogSequentialForward.fog[98].dispatcher droppedJobsSLA 0
scalar FogSequentialForward.fog[98].dispatcher jobs_class_1 359112
scalar FogSequentialForward.fog[98].dispatcher remoteJobs_class_1 44
scalar FogSequentialForward.fog[98].dispatcher localJobs_class_1 359068
scalar FogSequentialForward.fog[98].server[0] rho 0.55524736642838
scalar FogSequentialForward.fog[98].server[0] congestionRatio 0
scalar FogSequentialForward.fog[98].server[0] totalJobs 359068
scalar FogSequentialForward.fog[98].server[0] droppedJobsQueue 0
scalar FogSequentialForward.fog[98].server[0] droppedJobsTimout 0
scalar FogSequentialForward.fog[98].server[0] droppedJobsSLA 0
scalar FogSequentialForward.fog[98].server[0] droppedJobsTotal 0
scalar FogSequentialForward.fog[99].dispatcher localJobs 361030
scalar FogSequentialForward.fog[99].dispatcher internalJobs 361029
scalar FogSequentialForward.fog[99].dispatcher externalJobs 32
scalar FogSequentialForward.fog[99].dispatcher remoteJobs 31
scalar FogSequentialForward.fog[99].dispatcher probeQueries 0
scalar FogSequentialForward.fog[99].dispatcher probeAnswers 0
scalar FogSequentialForward.fog[99].dispatcher droppedJobsSLA 0
scalar FogSequentialForward.fog[99].dispatcher jobs_class_1 361061
scalar FogSequentialForward.fog[99].dispatcher remoteJobs_class_1 31
scalar FogSequentialForward.fog[99].dispatcher localJobs_class_1 361030
scalar FogSequentialForward.fog[99].server[0] rho 0.55824875831604
scalar FogSequentialForward.fog[99].server[0] congestionRatio 0
scalar FogSequentialForward.fog[99].server[0] totalJobs 361030
scalar FogSequentialForward.fog[99].server[0] droppedJobsQueue 0
scalar FogSequentialForward.fog[99].server[0] droppedJobsTimout 0
scalar FogSequentialForward.fog[99].server[0] droppedJobsSLA 2
scalar FogSequentialForward.fog[99].server[0] droppedJobsTotal 2
scalar FogSequentialForward.sink avg_responseTime_1 0.027216408172425
scalar FogSequentialForward.sink p90_responseTime_1 0.014825980871
scalar FogSequentialForward.sink med_responseTime_1 0.014825980871
scalar FogSequentialForward.sink avg_delayTime_1 0
scalar FogSequentialForward.sink p90_delayTime_1 0
scalar FogSequentialForward.sink med_delayTime_1 0
scalar FogSequentialForward.sink avg_queuingTime_1 0.010514877143997
scalar FogSequentialForward.sink p90_queuingTime_1 0
scalar FogSequentialForward.sink med_queuingTime_1 0
scalar FogSequentialForward.sink avg_serviceTime_1 0.016699982611603
scalar FogSequentialForward.sink p90_serviceTime_1 0.014645404052
scalar FogSequentialForward.sink med_serviceTime_1 0.014645404052
scalar FogSequentialForward.sink avg_balancerTime_1 1.5484168292701e-06
scalar FogSequentialForward.sink p90_balancerTime_1 0
scalar FogSequentialForward.sink med_balancerTime_1 0
scalar FogSequentialForward.sink avg_balancerCount_1 1.0000927195706
scalar FogSequentialForward.sink p90_balancerCount_1 1
scalar FogSequentialForward.sink med_balancerCount_1 1

