version 2
run Fog-mul_001-rho_09-thr_18-1-20190714-00:34:26-84992
attr configname Fog-mul_001-rho_09-thr_18
attr datetime 20190714-00:34:26
attr experiment Fog-mul_001-rho_09-thr_18
attr inifile FogSequentialForward.ini
attr iterationvars ""
attr iterationvarsf ""
attr measurement ""
attr network FogSequentialForward
attr processid 84992
attr repetition 1
attr replication #1
attr resultdir results
attr runnumber 1
attr seedset 1
param FogSequentialForward.proctimeMul 0.01
param FogSequentialForward.rho 0.9
param FogSequentialForward.fog[*].dispatcher.thr 18
param FogSequentialForward.nSources 100
param FogSequentialForward.rho 0.9
param FogSequentialForward.proctimeMul 1.0
param FogSequentialForward.source[*].appId 1
param FogSequentialForward.source[*].realTime true
param FogSequentialForward.source[*].multiHop true
param FogSequentialForward.fog[*].nServers 1
param FogSequentialForward.fog[*].dispatcher.fanOut 1
param FogSequentialForward.fog[*].server[*].timeSlice -1s
param FogSequentialForward.fog[*].server[*].timeout -1s
param FogSequentialForward.fog[*].server[*].capacity 20
param FogSequentialForward.fog[*].server[*].fifo true
param FogSequentialForward.fog[*].server[*].maxServiceTime -1s
param FogSequentialForward.fog[*].dispatcher.thr 1

scalar FogSequentialForward.fog[0].dispatcher localJobs 1597182
scalar FogSequentialForward.fog[0].dispatcher internalJobs 1620815
scalar FogSequentialForward.fog[0].dispatcher externalJobs 3258368
scalar FogSequentialForward.fog[0].dispatcher remoteJobs 3256550
scalar FogSequentialForward.fog[0].dispatcher probeQueries 0
scalar FogSequentialForward.fog[0].dispatcher probeAnswers 0
scalar FogSequentialForward.fog[0].dispatcher droppedJobsSLA 25451
scalar FogSequentialForward.fog[0].dispatcher jobs_class_1 4879183
scalar FogSequentialForward.fog[0].dispatcher remoteJobs_class_1 3256550
scalar FogSequentialForward.fog[0].dispatcher localJobs_class_1 1597182
scalar FogSequentialForward.fog[0].dispatcher droppedJobsSLA_class_1 25451
scalar FogSequentialForward.fog[0].server[0] rho 1
scalar FogSequentialForward.fog[0].server[0] congestionRatio 0
scalar FogSequentialForward.fog[0].server[0] totalJobs 1597182
scalar FogSequentialForward.fog[0].server[0] droppedJobsQueue 167489
scalar FogSequentialForward.fog[0].server[0] droppedJobsTimout 0
scalar FogSequentialForward.fog[0].server[0] droppedJobsSLA 1076492
scalar FogSequentialForward.fog[0].server[0] droppedJobsTotal 1243981
scalar FogSequentialForward.fog[1].dispatcher localJobs 1597626
scalar FogSequentialForward.fog[1].dispatcher internalJobs 1620089
scalar FogSequentialForward.fog[1].dispatcher externalJobs 3260969
scalar FogSequentialForward.fog[1].dispatcher remoteJobs 3258156
scalar FogSequentialForward.fog[1].dispatcher probeQueries 0
scalar FogSequentialForward.fog[1].dispatcher probeAnswers 0
scalar FogSequentialForward.fog[1].dispatcher droppedJobsSLA 25276
scalar FogSequentialForward.fog[1].dispatcher jobs_class_1 4881058
scalar FogSequentialForward.fog[1].dispatcher remoteJobs_class_1 3258156
scalar FogSequentialForward.fog[1].dispatcher localJobs_class_1 1597626
scalar FogSequentialForward.fog[1].dispatcher droppedJobsSLA_class_1 25276
scalar FogSequentialForward.fog[1].server[0] rho 1
scalar FogSequentialForward.fog[1].server[0] congestionRatio 0
scalar FogSequentialForward.fog[1].server[0] totalJobs 1597626
scalar FogSequentialForward.fog[1].server[0] droppedJobsQueue 168362
scalar FogSequentialForward.fog[1].server[0] droppedJobsTimout 0
scalar FogSequentialForward.fog[1].server[0] droppedJobsSLA 1075768
scalar FogSequentialForward.fog[1].server[0] droppedJobsTotal 1244130
scalar FogSequentialForward.fog[2].dispatcher localJobs 1597469
scalar FogSequentialForward.fog[2].dispatcher internalJobs 1624379
scalar FogSequentialForward.fog[2].dispatcher externalJobs 3260211
scalar FogSequentialForward.fog[2].dispatcher remoteJobs 3261400
scalar FogSequentialForward.fog[2].dispatcher probeQueries 0
scalar FogSequentialForward.fog[2].dispatcher probeAnswers 0
scalar FogSequentialForward.fog[2].dispatcher droppedJobsSLA 25721
scalar FogSequentialForward.fog[2].dispatcher jobs_class_1 4884590
scalar FogSequentialForward.fog[2].dispatcher remoteJobs_class_1 3261400
scalar FogSequentialForward.fog[2].dispatcher localJobs_class_1 1597469
scalar FogSequentialForward.fog[2].dispatcher droppedJobsSLA_class_1 25721
scalar FogSequentialForward.fog[2].server[0] rho 1
scalar FogSequentialForward.fog[2].server[0] congestionRatio 0
scalar FogSequentialForward.fog[2].server[0] totalJobs 1597469
scalar FogSequentialForward.fog[2].server[0] droppedJobsQueue 167853
scalar FogSequentialForward.fog[2].server[0] droppedJobsTimout 0
scalar FogSequentialForward.fog[2].server[0] droppedJobsSLA 1075423
scalar FogSequentialForward.fog[2].server[0] droppedJobsTotal 1243276
scalar FogSequentialForward.fog[3].dispatcher localJobs 1597342
scalar FogSequentialForward.fog[3].dispatcher internalJobs 1624474
scalar FogSequentialForward.fog[3].dispatcher externalJobs 3259551
scalar FogSequentialForward.fog[3].dispatcher remoteJobs 3261429
scalar FogSequentialForward.fog[3].dispatcher probeQueries 0
scalar FogSequentialForward.fog[3].dispatcher probeAnswers 0
scalar FogSequentialForward.fog[3].dispatcher droppedJobsSLA 25254
scalar FogSequentialForward.fog[3].dispatcher jobs_class_1 4884025
scalar FogSequentialForward.fog[3].dispatcher remoteJobs_class_1 3261429
scalar FogSequentialForward.fog[3].dispatcher localJobs_class_1 1597342
scalar FogSequentialForward.fog[3].dispatcher droppedJobsSLA_class_1 25254
scalar FogSequentialForward.fog[3].server[0] rho 1
scalar FogSequentialForward.fog[3].server[0] congestionRatio 0
scalar FogSequentialForward.fog[3].server[0] totalJobs 1597342
scalar FogSequentialForward.fog[3].server[0] droppedJobsQueue 168070
scalar FogSequentialForward.fog[3].server[0] droppedJobsTimout 0
scalar FogSequentialForward.fog[3].server[0] droppedJobsSLA 1075539
scalar FogSequentialForward.fog[3].server[0] droppedJobsTotal 1243609
scalar FogSequentialForward.fog[4].dispatcher localJobs 1597638
scalar FogSequentialForward.fog[4].dispatcher internalJobs 1623777
scalar FogSequentialForward.fog[4].dispatcher externalJobs 3258774
scalar FogSequentialForward.fog[4].dispatcher remoteJobs 3259639
scalar FogSequentialForward.fog[4].dispatcher probeQueries 0
scalar FogSequentialForward.fog[4].dispatcher probeAnswers 0
scalar FogSequentialForward.fog[4].dispatcher droppedJobsSLA 25274
scalar FogSequentialForward.fog[4].dispatcher jobs_class_1 4882551
scalar FogSequentialForward.fog[4].dispatcher remoteJobs_class_1 3259639
scalar FogSequentialForward.fog[4].dispatcher localJobs_class_1 1597638
scalar FogSequentialForward.fog[4].dispatcher droppedJobsSLA_class_1 25274
scalar FogSequentialForward.fog[4].server[0] rho 1
scalar FogSequentialForward.fog[4].server[0] congestionRatio 0
scalar FogSequentialForward.fog[4].server[0] totalJobs 1597638
scalar FogSequentialForward.fog[4].server[0] droppedJobsQueue 168046
scalar FogSequentialForward.fog[4].server[0] droppedJobsTimout 0
scalar FogSequentialForward.fog[4].server[0] droppedJobsSLA 1076058
scalar FogSequentialForward.fog[4].server[0] droppedJobsTotal 1244104
scalar FogSequentialForward.fog[5].dispatcher localJobs 1597851
scalar FogSequentialForward.fog[5].dispatcher internalJobs 1622641
scalar FogSequentialForward.fog[5].dispatcher externalJobs 3259623
scalar FogSequentialForward.fog[5].dispatcher remoteJobs 3259232
scalar FogSequentialForward.fog[5].dispatcher probeQueries 0
scalar FogSequentialForward.fog[5].dispatcher probeAnswers 0
scalar FogSequentialForward.fog[5].dispatcher droppedJobsSLA 25181
scalar FogSequentialForward.fog[5].dispatcher jobs_class_1 4882264
scalar FogSequentialForward.fog[5].dispatcher remoteJobs_class_1 3259232
scalar FogSequentialForward.fog[5].dispatcher localJobs_class_1 1597851
scalar FogSequentialForward.fog[5].dispatcher droppedJobsSLA_class_1 25181
scalar FogSequentialForward.fog[5].server[0] rho 0.99999982118607
scalar FogSequentialForward.fog[5].server[0] congestionRatio 0
scalar FogSequentialForward.fog[5].server[0] totalJobs 1597851
scalar FogSequentialForward.fog[5].server[0] droppedJobsQueue 168352
scalar FogSequentialForward.fog[5].server[0] droppedJobsTimout 0
scalar FogSequentialForward.fog[5].server[0] droppedJobsSLA 1075992
scalar FogSequentialForward.fog[5].server[0] droppedJobsTotal 1244344
scalar FogSequentialForward.fog[6].dispatcher localJobs 1598407
scalar FogSequentialForward.fog[6].dispatcher internalJobs 1623520
scalar FogSequentialForward.fog[6].dispatcher externalJobs 3262224
scalar FogSequentialForward.fog[6].dispatcher remoteJobs 3261826
scalar FogSequentialForward.fog[6].dispatcher probeQueries 0
scalar FogSequentialForward.fog[6].dispatcher probeAnswers 0
scalar FogSequentialForward.fog[6].dispatcher droppedJobsSLA 25511
scalar FogSequentialForward.fog[6].dispatcher jobs_class_1 4885744
scalar FogSequentialForward.fog[6].dispatcher remoteJobs_class_1 3261826
scalar FogSequentialForward.fog[6].dispatcher localJobs_class_1 1598407
scalar FogSequentialForward.fog[6].dispatcher droppedJobsSLA_class_1 25511
scalar FogSequentialForward.fog[6].server[0] rho 1
scalar FogSequentialForward.fog[6].server[0] congestionRatio 0
scalar FogSequentialForward.fog[6].server[0] totalJobs 1598407
scalar FogSequentialForward.fog[6].server[0] droppedJobsQueue 168380
scalar FogSequentialForward.fog[6].server[0] droppedJobsTimout 0
scalar FogSequentialForward.fog[6].server[0] droppedJobsSLA 1076191
scalar FogSequentialForward.fog[6].server[0] droppedJobsTotal 1244571
scalar FogSequentialForward.fog[7].dispatcher localJobs 1598211
scalar FogSequentialForward.fog[7].dispatcher internalJobs 1624200
scalar FogSequentialForward.fog[7].dispatcher externalJobs 3262447
scalar FogSequentialForward.fog[7].dispatcher remoteJobs 3263267
scalar FogSequentialForward.fog[7].dispatcher probeQueries 0
scalar FogSequentialForward.fog[7].dispatcher probeAnswers 0
scalar FogSequentialForward.fog[7].dispatcher droppedJobsSLA 25169
scalar FogSequentialForward.fog[7].dispatcher jobs_class_1 4886647
scalar FogSequentialForward.fog[7].dispatcher remoteJobs_class_1 3263267
scalar FogSequentialForward.fog[7].dispatcher localJobs_class_1 1598211
scalar FogSequentialForward.fog[7].dispatcher droppedJobsSLA_class_1 25169
scalar FogSequentialForward.fog[7].server[0] rho 1
scalar FogSequentialForward.fog[7].server[0] congestionRatio 0
scalar FogSequentialForward.fog[7].server[0] totalJobs 1598211
scalar FogSequentialForward.fog[7].server[0] droppedJobsQueue 168435
scalar FogSequentialForward.fog[7].server[0] droppedJobsTimout 0
scalar FogSequentialForward.fog[7].server[0] droppedJobsSLA 1076075
scalar FogSequentialForward.fog[7].server[0] droppedJobsTotal 1244510
scalar FogSequentialForward.fog[8].dispatcher localJobs 1597372
scalar FogSequentialForward.fog[8].dispatcher internalJobs 1623559
scalar FogSequentialForward.fog[8].dispatcher externalJobs 3259802
scalar FogSequentialForward.fog[8].dispatcher remoteJobs 3260587
scalar FogSequentialForward.fog[8].dispatcher probeQueries 0
scalar FogSequentialForward.fog[8].dispatcher probeAnswers 0
scalar FogSequentialForward.fog[8].dispatcher droppedJobsSLA 25402
scalar FogSequentialForward.fog[8].dispatcher jobs_class_1 4883361
scalar FogSequentialForward.fog[8].dispatcher remoteJobs_class_1 3260587
scalar FogSequentialForward.fog[8].dispatcher localJobs_class_1 1597372
scalar FogSequentialForward.fog[8].dispatcher droppedJobsSLA_class_1 25402
scalar FogSequentialForward.fog[8].server[0] rho 1
scalar FogSequentialForward.fog[8].server[0] congestionRatio 0
scalar FogSequentialForward.fog[8].server[0] totalJobs 1597372
scalar FogSequentialForward.fog[8].server[0] droppedJobsQueue 168024
scalar FogSequentialForward.fog[8].server[0] droppedJobsTimout 0
scalar FogSequentialForward.fog[8].server[0] droppedJobsSLA 1075571
scalar FogSequentialForward.fog[8].server[0] droppedJobsTotal 1243595
scalar FogSequentialForward.fog[9].dispatcher localJobs 1596974
scalar FogSequentialForward.fog[9].dispatcher internalJobs 1623970
scalar FogSequentialForward.fog[9].dispatcher externalJobs 3260627
scalar FogSequentialForward.fog[9].dispatcher remoteJobs 3262396
scalar FogSequentialForward.fog[9].dispatcher probeQueries 0
scalar FogSequentialForward.fog[9].dispatcher probeAnswers 0
scalar FogSequentialForward.fog[9].dispatcher droppedJobsSLA 25227
scalar FogSequentialForward.fog[9].dispatcher jobs_class_1 4884597
scalar FogSequentialForward.fog[9].dispatcher remoteJobs_class_1 3262396
scalar FogSequentialForward.fog[9].dispatcher localJobs_class_1 1596974
scalar FogSequentialForward.fog[9].dispatcher droppedJobsSLA_class_1 25227
scalar FogSequentialForward.fog[9].server[0] rho 1
scalar FogSequentialForward.fog[9].server[0] congestionRatio 0
scalar FogSequentialForward.fog[9].server[0] totalJobs 1596974
scalar FogSequentialForward.fog[9].server[0] droppedJobsQueue 167918
scalar FogSequentialForward.fog[9].server[0] droppedJobsTimout 0
scalar FogSequentialForward.fog[9].server[0] droppedJobsSLA 1076252
scalar FogSequentialForward.fog[9].server[0] droppedJobsTotal 1244170
scalar FogSequentialForward.fog[10].dispatcher localJobs 1598270
scalar FogSequentialForward.fog[10].dispatcher internalJobs 1622558
scalar FogSequentialForward.fog[10].dispatcher externalJobs 3263082
scalar FogSequentialForward.fog[10].dispatcher remoteJobs 3262030
scalar FogSequentialForward.fog[10].dispatcher probeQueries 0
scalar FogSequentialForward.fog[10].dispatcher probeAnswers 0
scalar FogSequentialForward.fog[10].dispatcher droppedJobsSLA 25340
scalar FogSequentialForward.fog[10].dispatcher jobs_class_1 4885640
scalar FogSequentialForward.fog[10].dispatcher remoteJobs_class_1 3262030
scalar FogSequentialForward.fog[10].dispatcher localJobs_class_1 1598270
scalar FogSequentialForward.fog[10].dispatcher droppedJobsSLA_class_1 25340
scalar FogSequentialForward.fog[10].server[0] rho 1
scalar FogSequentialForward.fog[10].server[0] congestionRatio 0
scalar FogSequentialForward.fog[10].server[0] totalJobs 1598270
scalar FogSequentialForward.fog[10].server[0] droppedJobsQueue 168576
scalar FogSequentialForward.fog[10].server[0] droppedJobsTimout 0
scalar FogSequentialForward.fog[10].server[0] droppedJobsSLA 1076360
scalar FogSequentialForward.fog[10].server[0] droppedJobsTotal 1244936
scalar FogSequentialForward.fog[11].dispatcher localJobs 1598259
scalar FogSequentialForward.fog[11].dispatcher internalJobs 1622067
scalar FogSequentialForward.fog[11].dispatcher externalJobs 3260567
scalar FogSequentialForward.fog[11].dispatcher remoteJobs 3259032
scalar FogSequentialForward.fog[11].dispatcher probeQueries 0
scalar FogSequentialForward.fog[11].dispatcher probeAnswers 0
scalar FogSequentialForward.fog[11].dispatcher droppedJobsSLA 25343
scalar FogSequentialForward.fog[11].dispatcher jobs_class_1 4882634
scalar FogSequentialForward.fog[11].dispatcher remoteJobs_class_1 3259032
scalar FogSequentialForward.fog[11].dispatcher localJobs_class_1 1598259
scalar FogSequentialForward.fog[11].dispatcher droppedJobsSLA_class_1 25343
scalar FogSequentialForward.fog[11].server[0] rho 1
scalar FogSequentialForward.fog[11].server[0] congestionRatio 0
scalar FogSequentialForward.fog[11].server[0] totalJobs 1598259
scalar FogSequentialForward.fog[11].server[0] droppedJobsQueue 168279
scalar FogSequentialForward.fog[11].server[0] droppedJobsTimout 0
scalar FogSequentialForward.fog[11].server[0] droppedJobsSLA 1076032
scalar FogSequentialForward.fog[11].server[0] droppedJobsTotal 1244311
scalar FogSequentialForward.fog[12].dispatcher localJobs 1597707
scalar FogSequentialForward.fog[12].dispatcher internalJobs 1624677
scalar FogSequentialForward.fog[12].dispatcher externalJobs 3260077
scalar FogSequentialForward.fog[12].dispatcher remoteJobs 3261852
scalar FogSequentialForward.fog[12].dispatcher probeQueries 0
scalar FogSequentialForward.fog[12].dispatcher probeAnswers 0
scalar FogSequentialForward.fog[12].dispatcher droppedJobsSLA 25195
scalar FogSequentialForward.fog[12].dispatcher jobs_class_1 4884754
scalar FogSequentialForward.fog[12].dispatcher remoteJobs_class_1 3261852
scalar FogSequentialForward.fog[12].dispatcher localJobs_class_1 1597707
scalar FogSequentialForward.fog[12].dispatcher droppedJobsSLA_class_1 25195
scalar FogSequentialForward.fog[12].server[0] rho 1
scalar FogSequentialForward.fog[12].server[0] congestionRatio 0
scalar FogSequentialForward.fog[12].server[0] totalJobs 1597707
scalar FogSequentialForward.fog[12].server[0] droppedJobsQueue 168117
scalar FogSequentialForward.fog[12].server[0] droppedJobsTimout 0
scalar FogSequentialForward.fog[12].server[0] droppedJobsSLA 1075046
scalar FogSequentialForward.fog[12].server[0] droppedJobsTotal 1243163
scalar FogSequentialForward.fog[13].dispatcher localJobs 1597519
scalar FogSequentialForward.fog[13].dispatcher internalJobs 1626321
scalar FogSequentialForward.fog[13].dispatcher externalJobs 3261164
scalar FogSequentialForward.fog[13].dispatcher remoteJobs 3264663
scalar FogSequentialForward.fog[13].dispatcher probeQueries 0
scalar FogSequentialForward.fog[13].dispatcher probeAnswers 0
scalar FogSequentialForward.fog[13].dispatcher droppedJobsSLA 25303
scalar FogSequentialForward.fog[13].dispatcher jobs_class_1 4887485
scalar FogSequentialForward.fog[13].dispatcher remoteJobs_class_1 3264663
scalar FogSequentialForward.fog[13].dispatcher localJobs_class_1 1597519
scalar FogSequentialForward.fog[13].dispatcher droppedJobsSLA_class_1 25303
scalar FogSequentialForward.fog[13].server[0] rho 1
scalar FogSequentialForward.fog[13].server[0] congestionRatio 0
scalar FogSequentialForward.fog[13].server[0] totalJobs 1597519
scalar FogSequentialForward.fog[13].server[0] droppedJobsQueue 168048
scalar FogSequentialForward.fog[13].server[0] droppedJobsTimout 0
scalar FogSequentialForward.fog[13].server[0] droppedJobsSLA 1075723
scalar FogSequentialForward.fog[13].server[0] droppedJobsTotal 1243771
scalar FogSequentialForward.fog[14].dispatcher localJobs 1596850
scalar FogSequentialForward.fog[14].dispatcher internalJobs 1623426
scalar FogSequentialForward.fog[14].dispatcher externalJobs 3262455
scalar FogSequentialForward.fog[14].dispatcher remoteJobs 3263373
scalar FogSequentialForward.fog[14].dispatcher probeQueries 0
scalar FogSequentialForward.fog[14].dispatcher probeAnswers 0
scalar FogSequentialForward.fog[14].dispatcher droppedJobsSLA 25658
scalar FogSequentialForward.fog[14].dispatcher jobs_class_1 4885881
scalar FogSequentialForward.fog[14].dispatcher remoteJobs_class_1 3263373
scalar FogSequentialForward.fog[14].dispatcher localJobs_class_1 1596850
scalar FogSequentialForward.fog[14].dispatcher droppedJobsSLA_class_1 25658
scalar FogSequentialForward.fog[14].server[0] rho 1
scalar FogSequentialForward.fog[14].server[0] congestionRatio 0
scalar FogSequentialForward.fog[14].server[0] totalJobs 1596850
scalar FogSequentialForward.fog[14].server[0] droppedJobsQueue 167794
scalar FogSequentialForward.fog[14].server[0] droppedJobsTimout 0
scalar FogSequentialForward.fog[14].server[0] droppedJobsSLA 1075060
scalar FogSequentialForward.fog[14].server[0] droppedJobsTotal 1242854
scalar FogSequentialForward.fog[15].dispatcher localJobs 1597870
scalar FogSequentialForward.fog[15].dispatcher internalJobs 1622861
scalar FogSequentialForward.fog[15].dispatcher externalJobs 3261727
scalar FogSequentialForward.fog[15].dispatcher remoteJobs 3261062
scalar FogSequentialForward.fog[15].dispatcher probeQueries 0
scalar FogSequentialForward.fog[15].dispatcher probeAnswers 0
scalar FogSequentialForward.fog[15].dispatcher droppedJobsSLA 25656
scalar FogSequentialForward.fog[15].dispatcher jobs_class_1 4884588
scalar FogSequentialForward.fog[15].dispatcher remoteJobs_class_1 3261062
scalar FogSequentialForward.fog[15].dispatcher localJobs_class_1 1597870
scalar FogSequentialForward.fog[15].dispatcher droppedJobsSLA_class_1 25656
scalar FogSequentialForward.fog[15].server[0] rho 1
scalar FogSequentialForward.fog[15].server[0] congestionRatio 0
scalar FogSequentialForward.fog[15].server[0] totalJobs 1597870
scalar FogSequentialForward.fog[15].server[0] droppedJobsQueue 168057
scalar FogSequentialForward.fog[15].server[0] droppedJobsTimout 0
scalar FogSequentialForward.fog[15].server[0] droppedJobsSLA 1075983
scalar FogSequentialForward.fog[15].server[0] droppedJobsTotal 1244040
scalar FogSequentialForward.fog[16].dispatcher localJobs 1597108
scalar FogSequentialForward.fog[16].dispatcher internalJobs 1623545
scalar FogSequentialForward.fog[16].dispatcher externalJobs 3259306
scalar FogSequentialForward.fog[16].dispatcher remoteJobs 3260251
scalar FogSequentialForward.fog[16].dispatcher probeQueries 0
scalar FogSequentialForward.fog[16].dispatcher probeAnswers 0
scalar FogSequentialForward.fog[16].dispatcher droppedJobsSLA 25492
scalar FogSequentialForward.fog[16].dispatcher jobs_class_1 4882851
scalar FogSequentialForward.fog[16].dispatcher remoteJobs_class_1 3260251
scalar FogSequentialForward.fog[16].dispatcher localJobs_class_1 1597108
scalar FogSequentialForward.fog[16].dispatcher droppedJobsSLA_class_1 25492
scalar FogSequentialForward.fog[16].server[0] rho 1
scalar FogSequentialForward.fog[16].server[0] congestionRatio 0
scalar FogSequentialForward.fog[16].server[0] totalJobs 1597108
scalar FogSequentialForward.fog[16].server[0] droppedJobsQueue 168205
scalar FogSequentialForward.fog[16].server[0] droppedJobsTimout 0
scalar FogSequentialForward.fog[16].server[0] droppedJobsSLA 1076020
scalar FogSequentialForward.fog[16].server[0] droppedJobsTotal 1244225
scalar FogSequentialForward.fog[17].dispatcher localJobs 1597366
scalar FogSequentialForward.fog[17].dispatcher internalJobs 1623869
scalar FogSequentialForward.fog[17].dispatcher externalJobs 3260387
scalar FogSequentialForward.fog[17].dispatcher remoteJobs 3261563
scalar FogSequentialForward.fog[17].dispatcher probeQueries 0
scalar FogSequentialForward.fog[17].dispatcher probeAnswers 0
scalar FogSequentialForward.fog[17].dispatcher droppedJobsSLA 25327
scalar FogSequentialForward.fog[17].dispatcher jobs_class_1 4884256
scalar FogSequentialForward.fog[17].dispatcher remoteJobs_class_1 3261563
scalar FogSequentialForward.fog[17].dispatcher localJobs_class_1 1597366
scalar FogSequentialForward.fog[17].dispatcher droppedJobsSLA_class_1 25327
scalar FogSequentialForward.fog[17].server[0] rho 1
scalar FogSequentialForward.fog[17].server[0] congestionRatio 0
scalar FogSequentialForward.fog[17].server[0] totalJobs 1597366
scalar FogSequentialForward.fog[17].server[0] droppedJobsQueue 168072
scalar FogSequentialForward.fog[17].server[0] droppedJobsTimout 0
scalar FogSequentialForward.fog[17].server[0] droppedJobsSLA 1076059
scalar FogSequentialForward.fog[17].server[0] droppedJobsTotal 1244131
scalar FogSequentialForward.fog[18].dispatcher localJobs 1598011
scalar FogSequentialForward.fog[18].dispatcher internalJobs 1621895
scalar FogSequentialForward.fog[18].dispatcher externalJobs 3261633
scalar FogSequentialForward.fog[18].dispatcher remoteJobs 3260010
scalar FogSequentialForward.fog[18].dispatcher probeQueries 0
scalar FogSequentialForward.fog[18].dispatcher probeAnswers 0
scalar FogSequentialForward.fog[18].dispatcher droppedJobsSLA 25507
scalar FogSequentialForward.fog[18].dispatcher jobs_class_1 4883528
scalar FogSequentialForward.fog[18].dispatcher remoteJobs_class_1 3260010
scalar FogSequentialForward.fog[18].dispatcher localJobs_class_1 1598011
scalar FogSequentialForward.fog[18].dispatcher droppedJobsSLA_class_1 25507
scalar FogSequentialForward.fog[18].server[0] rho 1
scalar FogSequentialForward.fog[18].server[0] congestionRatio 0
scalar FogSequentialForward.fog[18].server[0] totalJobs 1598011
scalar FogSequentialForward.fog[18].server[0] droppedJobsQueue 167984
scalar FogSequentialForward.fog[18].server[0] droppedJobsTimout 0
scalar FogSequentialForward.fog[18].server[0] droppedJobsSLA 1076886
scalar FogSequentialForward.fog[18].server[0] droppedJobsTotal 1244870
scalar FogSequentialForward.fog[19].dispatcher localJobs 1597907
scalar FogSequentialForward.fog[19].dispatcher internalJobs 1624314
scalar FogSequentialForward.fog[19].dispatcher externalJobs 3261866
scalar FogSequentialForward.fog[19].dispatcher remoteJobs 3262662
scalar FogSequentialForward.fog[19].dispatcher probeQueries 0
scalar FogSequentialForward.fog[19].dispatcher probeAnswers 0
scalar FogSequentialForward.fog[19].dispatcher droppedJobsSLA 25611
scalar FogSequentialForward.fog[19].dispatcher jobs_class_1 4886180
scalar FogSequentialForward.fog[19].dispatcher remoteJobs_class_1 3262662
scalar FogSequentialForward.fog[19].dispatcher localJobs_class_1 1597907
scalar FogSequentialForward.fog[19].dispatcher droppedJobsSLA_class_1 25611
scalar FogSequentialForward.fog[19].server[0] rho 1
scalar FogSequentialForward.fog[19].server[0] congestionRatio 0
scalar FogSequentialForward.fog[19].server[0] totalJobs 1597907
scalar FogSequentialForward.fog[19].server[0] droppedJobsQueue 168177
scalar FogSequentialForward.fog[19].server[0] droppedJobsTimout 0
scalar FogSequentialForward.fog[19].server[0] droppedJobsSLA 1076115
scalar FogSequentialForward.fog[19].server[0] droppedJobsTotal 1244292
scalar FogSequentialForward.fog[20].dispatcher localJobs 1597574
scalar FogSequentialForward.fog[20].dispatcher internalJobs 1620650
scalar FogSequentialForward.fog[20].dispatcher externalJobs 3260615
scalar FogSequentialForward.fog[20].dispatcher remoteJobs 3258437
scalar FogSequentialForward.fog[20].dispatcher probeQueries 0
scalar FogSequentialForward.fog[20].dispatcher probeAnswers 0
scalar FogSequentialForward.fog[20].dispatcher droppedJobsSLA 25254
scalar FogSequentialForward.fog[20].dispatcher jobs_class_1 4881265
scalar FogSequentialForward.fog[20].dispatcher remoteJobs_class_1 3258437
scalar FogSequentialForward.fog[20].dispatcher localJobs_class_1 1597574
scalar FogSequentialForward.fog[20].dispatcher droppedJobsSLA_class_1 25254
scalar FogSequentialForward.fog[20].server[0] rho 1
scalar FogSequentialForward.fog[20].server[0] congestionRatio 0
scalar FogSequentialForward.fog[20].server[0] totalJobs 1597574
scalar FogSequentialForward.fog[20].server[0] droppedJobsQueue 167921
scalar FogSequentialForward.fog[20].server[0] droppedJobsTimout 0
scalar FogSequentialForward.fog[20].server[0] droppedJobsSLA 1075962
scalar FogSequentialForward.fog[20].server[0] droppedJobsTotal 1243883
scalar FogSequentialForward.fog[21].dispatcher localJobs 1598135
scalar FogSequentialForward.fog[21].dispatcher internalJobs 1622631
scalar FogSequentialForward.fog[21].dispatcher externalJobs 3260249
scalar FogSequentialForward.fog[21].dispatcher remoteJobs 3258986
scalar FogSequentialForward.fog[21].dispatcher probeQueries 0
scalar FogSequentialForward.fog[21].dispatcher probeAnswers 0
scalar FogSequentialForward.fog[21].dispatcher droppedJobsSLA 25759
scalar FogSequentialForward.fog[21].dispatcher jobs_class_1 4882880
scalar FogSequentialForward.fog[21].dispatcher remoteJobs_class_1 3258986
scalar FogSequentialForward.fog[21].dispatcher localJobs_class_1 1598135
scalar FogSequentialForward.fog[21].dispatcher droppedJobsSLA_class_1 25759
scalar FogSequentialForward.fog[21].server[0] rho 1
scalar FogSequentialForward.fog[21].server[0] congestionRatio 0
scalar FogSequentialForward.fog[21].server[0] totalJobs 1598135
scalar FogSequentialForward.fog[21].server[0] droppedJobsQueue 168167
scalar FogSequentialForward.fog[21].server[0] droppedJobsTimout 0
scalar FogSequentialForward.fog[21].server[0] droppedJobsSLA 1076656
scalar FogSequentialForward.fog[21].server[0] droppedJobsTotal 1244823
scalar FogSequentialForward.fog[22].dispatcher localJobs 1597284
scalar FogSequentialForward.fog[22].dispatcher internalJobs 1623815
scalar FogSequentialForward.fog[22].dispatcher externalJobs 3262112
scalar FogSequentialForward.fog[22].dispatcher remoteJobs 3263309
scalar FogSequentialForward.fog[22].dispatcher probeQueries 0
scalar FogSequentialForward.fog[22].dispatcher probeAnswers 0
scalar FogSequentialForward.fog[22].dispatcher droppedJobsSLA 25334
scalar FogSequentialForward.fog[22].dispatcher jobs_class_1 4885927
scalar FogSequentialForward.fog[22].dispatcher remoteJobs_class_1 3263309
scalar FogSequentialForward.fog[22].dispatcher localJobs_class_1 1597284
scalar FogSequentialForward.fog[22].dispatcher droppedJobsSLA_class_1 25334
scalar FogSequentialForward.fog[22].server[0] rho 1
scalar FogSequentialForward.fog[22].server[0] congestionRatio 0
scalar FogSequentialForward.fog[22].server[0] totalJobs 1597284
scalar FogSequentialForward.fog[22].server[0] droppedJobsQueue 168325
scalar FogSequentialForward.fog[22].server[0] droppedJobsTimout 0
scalar FogSequentialForward.fog[22].server[0] droppedJobsSLA 1075379
scalar FogSequentialForward.fog[22].server[0] droppedJobsTotal 1243704
scalar FogSequentialForward.fog[23].dispatcher localJobs 1597886
scalar FogSequentialForward.fog[23].dispatcher internalJobs 1623387
scalar FogSequentialForward.fog[23].dispatcher externalJobs 3260994
scalar FogSequentialForward.fog[23].dispatcher remoteJobs 3260992
scalar FogSequentialForward.fog[23].dispatcher probeQueries 0
scalar FogSequentialForward.fog[23].dispatcher probeAnswers 0
scalar FogSequentialForward.fog[23].dispatcher droppedJobsSLA 25503
scalar FogSequentialForward.fog[23].dispatcher jobs_class_1 4884381
scalar FogSequentialForward.fog[23].dispatcher remoteJobs_class_1 3260992
scalar FogSequentialForward.fog[23].dispatcher localJobs_class_1 1597886
scalar FogSequentialForward.fog[23].dispatcher droppedJobsSLA_class_1 25503
scalar FogSequentialForward.fog[23].server[0] rho 1
scalar FogSequentialForward.fog[23].server[0] congestionRatio 0
scalar FogSequentialForward.fog[23].server[0] totalJobs 1597886
scalar FogSequentialForward.fog[23].server[0] droppedJobsQueue 168343
scalar FogSequentialForward.fog[23].server[0] droppedJobsTimout 0
scalar FogSequentialForward.fog[23].server[0] droppedJobsSLA 1076528
scalar FogSequentialForward.fog[23].server[0] droppedJobsTotal 1244871
scalar FogSequentialForward.fog[24].dispatcher localJobs 1598078
scalar FogSequentialForward.fog[24].dispatcher internalJobs 1623575
scalar FogSequentialForward.fog[24].dispatcher externalJobs 3261970
scalar FogSequentialForward.fog[24].dispatcher remoteJobs 3261879
scalar FogSequentialForward.fog[24].dispatcher probeQueries 0
scalar FogSequentialForward.fog[24].dispatcher probeAnswers 0
scalar FogSequentialForward.fog[24].dispatcher droppedJobsSLA 25588
scalar FogSequentialForward.fog[24].dispatcher jobs_class_1 4885545
scalar FogSequentialForward.fog[24].dispatcher remoteJobs_class_1 3261879
scalar FogSequentialForward.fog[24].dispatcher localJobs_class_1 1598078
scalar FogSequentialForward.fog[24].dispatcher droppedJobsSLA_class_1 25588
scalar FogSequentialForward.fog[24].server[0] rho 1
scalar FogSequentialForward.fog[24].server[0] congestionRatio 0
scalar FogSequentialForward.fog[24].server[0] totalJobs 1598078
scalar FogSequentialForward.fog[24].server[0] droppedJobsQueue 168383
scalar FogSequentialForward.fog[24].server[0] droppedJobsTimout 0
scalar FogSequentialForward.fog[24].server[0] droppedJobsSLA 1076046
scalar FogSequentialForward.fog[24].server[0] droppedJobsTotal 1244429
scalar FogSequentialForward.fog[25].dispatcher localJobs 1597784
scalar FogSequentialForward.fog[25].dispatcher internalJobs 1623427
scalar FogSequentialForward.fog[25].dispatcher externalJobs 3260125
scalar FogSequentialForward.fog[25].dispatcher remoteJobs 3260394
scalar FogSequentialForward.fog[25].dispatcher probeQueries 0
scalar FogSequentialForward.fog[25].dispatcher probeAnswers 0
scalar FogSequentialForward.fog[25].dispatcher droppedJobsSLA 25374
scalar FogSequentialForward.fog[25].dispatcher jobs_class_1 4883552
scalar FogSequentialForward.fog[25].dispatcher remoteJobs_class_1 3260394
scalar FogSequentialForward.fog[25].dispatcher localJobs_class_1 1597784
scalar FogSequentialForward.fog[25].dispatcher droppedJobsSLA_class_1 25374
scalar FogSequentialForward.fog[25].server[0] rho 1
scalar FogSequentialForward.fog[25].server[0] congestionRatio 0
scalar FogSequentialForward.fog[25].server[0] totalJobs 1597784
scalar FogSequentialForward.fog[25].server[0] droppedJobsQueue 168188
scalar FogSequentialForward.fog[25].server[0] droppedJobsTimout 0
scalar FogSequentialForward.fog[25].server[0] droppedJobsSLA 1075850
scalar FogSequentialForward.fog[25].server[0] droppedJobsTotal 1244038
scalar FogSequentialForward.fog[26].dispatcher localJobs 1596956
scalar FogSequentialForward.fog[26].dispatcher internalJobs 1622755
scalar FogSequentialForward.fog[26].dispatcher externalJobs 3256486
scalar FogSequentialForward.fog[26].dispatcher remoteJobs 3257002
scalar FogSequentialForward.fog[26].dispatcher probeQueries 0
scalar FogSequentialForward.fog[26].dispatcher probeAnswers 0
scalar FogSequentialForward.fog[26].dispatcher droppedJobsSLA 25283
scalar FogSequentialForward.fog[26].dispatcher jobs_class_1 4879241
scalar FogSequentialForward.fog[26].dispatcher remoteJobs_class_1 3257002
scalar FogSequentialForward.fog[26].dispatcher localJobs_class_1 1596956
scalar FogSequentialForward.fog[26].dispatcher droppedJobsSLA_class_1 25283
scalar FogSequentialForward.fog[26].server[0] rho 0.99999874830246
scalar FogSequentialForward.fog[26].server[0] congestionRatio 0
scalar FogSequentialForward.fog[26].server[0] totalJobs 1596956
scalar FogSequentialForward.fog[26].server[0] droppedJobsQueue 167743
scalar FogSequentialForward.fog[26].server[0] droppedJobsTimout 0
scalar FogSequentialForward.fog[26].server[0] droppedJobsSLA 1075753
scalar FogSequentialForward.fog[26].server[0] droppedJobsTotal 1243496
scalar FogSequentialForward.fog[27].dispatcher localJobs 1597876
scalar FogSequentialForward.fog[27].dispatcher internalJobs 1623364
scalar FogSequentialForward.fog[27].dispatcher externalJobs 3261447
scalar FogSequentialForward.fog[27].dispatcher remoteJobs 3261891
scalar FogSequentialForward.fog[27].dispatcher probeQueries 0
scalar FogSequentialForward.fog[27].dispatcher probeAnswers 0
scalar FogSequentialForward.fog[27].dispatcher droppedJobsSLA 25044
scalar FogSequentialForward.fog[27].dispatcher jobs_class_1 4884811
scalar FogSequentialForward.fog[27].dispatcher remoteJobs_class_1 3261891
scalar FogSequentialForward.fog[27].dispatcher localJobs_class_1 1597876
scalar FogSequentialForward.fog[27].dispatcher droppedJobsSLA_class_1 25044
scalar FogSequentialForward.fog[27].server[0] rho 1
scalar FogSequentialForward.fog[27].server[0] congestionRatio 0
scalar FogSequentialForward.fog[27].server[0] totalJobs 1597876
scalar FogSequentialForward.fog[27].server[0] droppedJobsQueue 168236
scalar FogSequentialForward.fog[27].server[0] droppedJobsTimout 0
scalar FogSequentialForward.fog[27].server[0] droppedJobsSLA 1075622
scalar FogSequentialForward.fog[27].server[0] droppedJobsTotal 1243858
scalar FogSequentialForward.fog[28].dispatcher localJobs 1597023
scalar FogSequentialForward.fog[28].dispatcher internalJobs 1623570
scalar FogSequentialForward.fog[28].dispatcher externalJobs 3257864
scalar FogSequentialForward.fog[28].dispatcher remoteJobs 3259210
scalar FogSequentialForward.fog[28].dispatcher probeQueries 0
scalar FogSequentialForward.fog[28].dispatcher probeAnswers 0
scalar FogSequentialForward.fog[28].dispatcher droppedJobsSLA 25201
scalar FogSequentialForward.fog[28].dispatcher jobs_class_1 4881434
scalar FogSequentialForward.fog[28].dispatcher remoteJobs_class_1 3259210
scalar FogSequentialForward.fog[28].dispatcher localJobs_class_1 1597023
scalar FogSequentialForward.fog[28].dispatcher droppedJobsSLA_class_1 25201
scalar FogSequentialForward.fog[28].server[0] rho 1
scalar FogSequentialForward.fog[28].server[0] congestionRatio 0
scalar FogSequentialForward.fog[28].server[0] totalJobs 1597023
scalar FogSequentialForward.fog[28].server[0] droppedJobsQueue 167883
scalar FogSequentialForward.fog[28].server[0] droppedJobsTimout 0
scalar FogSequentialForward.fog[28].server[0] droppedJobsSLA 1075515
scalar FogSequentialForward.fog[28].server[0] droppedJobsTotal 1243398
scalar FogSequentialForward.fog[29].dispatcher localJobs 1598168
scalar FogSequentialForward.fog[29].dispatcher internalJobs 1622656
scalar FogSequentialForward.fog[29].dispatcher externalJobs 3261246
scalar FogSequentialForward.fog[29].dispatcher remoteJobs 3260368
scalar FogSequentialForward.fog[29].dispatcher probeQueries 0
scalar FogSequentialForward.fog[29].dispatcher probeAnswers 0
scalar FogSequentialForward.fog[29].dispatcher droppedJobsSLA 25366
scalar FogSequentialForward.fog[29].dispatcher jobs_class_1 4883902
scalar FogSequentialForward.fog[29].dispatcher remoteJobs_class_1 3260368
scalar FogSequentialForward.fog[29].dispatcher localJobs_class_1 1598168
scalar FogSequentialForward.fog[29].dispatcher droppedJobsSLA_class_1 25366
scalar FogSequentialForward.fog[29].server[0] rho 1
scalar FogSequentialForward.fog[29].server[0] congestionRatio 0
scalar FogSequentialForward.fog[29].server[0] totalJobs 1598168
scalar FogSequentialForward.fog[29].server[0] droppedJobsQueue 168739
scalar FogSequentialForward.fog[29].server[0] droppedJobsTimout 0
scalar FogSequentialForward.fog[29].server[0] droppedJobsSLA 1076445
scalar FogSequentialForward.fog[29].server[0] droppedJobsTotal 1245184
scalar FogSequentialForward.fog[30].dispatcher localJobs 1597920
scalar FogSequentialForward.fog[30].dispatcher internalJobs 1623797
scalar FogSequentialForward.fog[30].dispatcher externalJobs 3260504
scalar FogSequentialForward.fog[30].dispatcher remoteJobs 3261147
scalar FogSequentialForward.fog[30].dispatcher probeQueries 0
scalar FogSequentialForward.fog[30].dispatcher probeAnswers 0
scalar FogSequentialForward.fog[30].dispatcher droppedJobsSLA 25234
scalar FogSequentialForward.fog[30].dispatcher jobs_class_1 4884301
scalar FogSequentialForward.fog[30].dispatcher remoteJobs_class_1 3261147
scalar FogSequentialForward.fog[30].dispatcher localJobs_class_1 1597920
scalar FogSequentialForward.fog[30].dispatcher droppedJobsSLA_class_1 25234
scalar FogSequentialForward.fog[30].server[0] rho 1
scalar FogSequentialForward.fog[30].server[0] congestionRatio 0
scalar FogSequentialForward.fog[30].server[0] totalJobs 1597920
scalar FogSequentialForward.fog[30].server[0] droppedJobsQueue 168018
scalar FogSequentialForward.fog[30].server[0] droppedJobsTimout 0
scalar FogSequentialForward.fog[30].server[0] droppedJobsSLA 1075358
scalar FogSequentialForward.fog[30].server[0] droppedJobsTotal 1243376
scalar FogSequentialForward.fog[31].dispatcher localJobs 1598200
scalar FogSequentialForward.fog[31].dispatcher internalJobs 1623278
scalar FogSequentialForward.fog[31].dispatcher externalJobs 3263602
scalar FogSequentialForward.fog[31].dispatcher remoteJobs 3263444
scalar FogSequentialForward.fog[31].dispatcher probeQueries 0
scalar FogSequentialForward.fog[31].dispatcher probeAnswers 0
scalar FogSequentialForward.fog[31].dispatcher droppedJobsSLA 25236
scalar FogSequentialForward.fog[31].dispatcher jobs_class_1 4886880
scalar FogSequentialForward.fog[31].dispatcher remoteJobs_class_1 3263444
scalar FogSequentialForward.fog[31].dispatcher localJobs_class_1 1598200
scalar FogSequentialForward.fog[31].dispatcher droppedJobsSLA_class_1 25236
scalar FogSequentialForward.fog[31].server[0] rho 1
scalar FogSequentialForward.fog[31].server[0] congestionRatio 0
scalar FogSequentialForward.fog[31].server[0] totalJobs 1598200
scalar FogSequentialForward.fog[31].server[0] droppedJobsQueue 168626
scalar FogSequentialForward.fog[31].server[0] droppedJobsTimout 0
scalar FogSequentialForward.fog[31].server[0] droppedJobsSLA 1076188
scalar FogSequentialForward.fog[31].server[0] droppedJobsTotal 1244814
scalar FogSequentialForward.fog[32].dispatcher localJobs 1598155
scalar FogSequentialForward.fog[32].dispatcher internalJobs 1621219
scalar FogSequentialForward.fog[32].dispatcher externalJobs 3261268
scalar FogSequentialForward.fog[32].dispatcher remoteJobs 3258752
scalar FogSequentialForward.fog[32].dispatcher probeQueries 0
scalar FogSequentialForward.fog[32].dispatcher probeAnswers 0
scalar FogSequentialForward.fog[32].dispatcher droppedJobsSLA 25580
scalar FogSequentialForward.fog[32].dispatcher jobs_class_1 4882487
scalar FogSequentialForward.fog[32].dispatcher remoteJobs_class_1 3258752
scalar FogSequentialForward.fog[32].dispatcher localJobs_class_1 1598155
scalar FogSequentialForward.fog[32].dispatcher droppedJobsSLA_class_1 25580
scalar FogSequentialForward.fog[32].server[0] rho 1
scalar FogSequentialForward.fog[32].server[0] congestionRatio 0
scalar FogSequentialForward.fog[32].server[0] totalJobs 1598155
scalar FogSequentialForward.fog[32].server[0] droppedJobsQueue 168203
scalar FogSequentialForward.fog[32].server[0] droppedJobsTimout 0
scalar FogSequentialForward.fog[32].server[0] droppedJobsSLA 1076685
scalar FogSequentialForward.fog[32].server[0] droppedJobsTotal 1244888
scalar FogSequentialForward.fog[33].dispatcher localJobs 1597219
scalar FogSequentialForward.fog[33].dispatcher internalJobs 1621976
scalar FogSequentialForward.fog[33].dispatcher externalJobs 3260376
scalar FogSequentialForward.fog[33].dispatcher remoteJobs 3259644
scalar FogSequentialForward.fog[33].dispatcher probeQueries 0
scalar FogSequentialForward.fog[33].dispatcher probeAnswers 0
scalar FogSequentialForward.fog[33].dispatcher droppedJobsSLA 25489
scalar FogSequentialForward.fog[33].dispatcher jobs_class_1 4882352
scalar FogSequentialForward.fog[33].dispatcher remoteJobs_class_1 3259644
scalar FogSequentialForward.fog[33].dispatcher localJobs_class_1 1597219
scalar FogSequentialForward.fog[33].dispatcher droppedJobsSLA_class_1 25489
scalar FogSequentialForward.fog[33].server[0] rho 1
scalar FogSequentialForward.fog[33].server[0] congestionRatio 0
scalar FogSequentialForward.fog[33].server[0] totalJobs 1597219
scalar FogSequentialForward.fog[33].server[0] droppedJobsQueue 167593
scalar FogSequentialForward.fog[33].server[0] droppedJobsTimout 0
scalar FogSequentialForward.fog[33].server[0] droppedJobsSLA 1075676
scalar FogSequentialForward.fog[33].server[0] droppedJobsTotal 1243269
scalar FogSequentialForward.fog[34].dispatcher localJobs 1597699
scalar FogSequentialForward.fog[34].dispatcher internalJobs 1623767
scalar FogSequentialForward.fog[34].dispatcher externalJobs 3261657
scalar FogSequentialForward.fog[34].dispatcher remoteJobs 3262212
scalar FogSequentialForward.fog[34].dispatcher probeQueries 0
scalar FogSequentialForward.fog[34].dispatcher probeAnswers 0
scalar FogSequentialForward.fog[34].dispatcher droppedJobsSLA 25513
scalar FogSequentialForward.fog[34].dispatcher jobs_class_1 4885424
scalar FogSequentialForward.fog[34].dispatcher remoteJobs_class_1 3262212
scalar FogSequentialForward.fog[34].dispatcher localJobs_class_1 1597699
scalar FogSequentialForward.fog[34].dispatcher droppedJobsSLA_class_1 25513
scalar FogSequentialForward.fog[34].server[0] rho 1
scalar FogSequentialForward.fog[34].server[0] congestionRatio 0
scalar FogSequentialForward.fog[34].server[0] totalJobs 1597699
scalar FogSequentialForward.fog[34].server[0] droppedJobsQueue 168108
scalar FogSequentialForward.fog[34].server[0] droppedJobsTimout 0
scalar FogSequentialForward.fog[34].server[0] droppedJobsSLA 1075566
scalar FogSequentialForward.fog[34].server[0] droppedJobsTotal 1243674
scalar FogSequentialForward.fog[35].dispatcher localJobs 1598362
scalar FogSequentialForward.fog[35].dispatcher internalJobs 1621899
scalar FogSequentialForward.fog[35].dispatcher externalJobs 3260393
scalar FogSequentialForward.fog[35].dispatcher remoteJobs 3258371
scalar FogSequentialForward.fog[35].dispatcher probeQueries 0
scalar FogSequentialForward.fog[35].dispatcher probeAnswers 0
scalar FogSequentialForward.fog[35].dispatcher droppedJobsSLA 25559
scalar FogSequentialForward.fog[35].dispatcher jobs_class_1 4882292
scalar FogSequentialForward.fog[35].dispatcher remoteJobs_class_1 3258371
scalar FogSequentialForward.fog[35].dispatcher localJobs_class_1 1598362
scalar FogSequentialForward.fog[35].dispatcher droppedJobsSLA_class_1 25559
scalar FogSequentialForward.fog[35].server[0] rho 1
scalar FogSequentialForward.fog[35].server[0] congestionRatio 0
scalar FogSequentialForward.fog[35].server[0] totalJobs 1598362
scalar FogSequentialForward.fog[35].server[0] droppedJobsQueue 168529
scalar FogSequentialForward.fog[35].server[0] droppedJobsTimout 0
scalar FogSequentialForward.fog[35].server[0] droppedJobsSLA 1076205
scalar FogSequentialForward.fog[35].server[0] droppedJobsTotal 1244734
scalar FogSequentialForward.fog[36].dispatcher localJobs 1597459
scalar FogSequentialForward.fog[36].dispatcher internalJobs 1623704
scalar FogSequentialForward.fog[36].dispatcher externalJobs 3259381
scalar FogSequentialForward.fog[36].dispatcher remoteJobs 3260426
scalar FogSequentialForward.fog[36].dispatcher probeQueries 0
scalar FogSequentialForward.fog[36].dispatcher probeAnswers 0
scalar FogSequentialForward.fog[36].dispatcher droppedJobsSLA 25200
scalar FogSequentialForward.fog[36].dispatcher jobs_class_1 4883085
scalar FogSequentialForward.fog[36].dispatcher remoteJobs_class_1 3260426
scalar FogSequentialForward.fog[36].dispatcher localJobs_class_1 1597459
scalar FogSequentialForward.fog[36].dispatcher droppedJobsSLA_class_1 25200
scalar FogSequentialForward.fog[36].server[0] rho 1
scalar FogSequentialForward.fog[36].server[0] congestionRatio 0
scalar FogSequentialForward.fog[36].server[0] totalJobs 1597459
scalar FogSequentialForward.fog[36].server[0] droppedJobsQueue 167914
scalar FogSequentialForward.fog[36].server[0] droppedJobsTimout 0
scalar FogSequentialForward.fog[36].server[0] droppedJobsSLA 1075823
scalar FogSequentialForward.fog[36].server[0] droppedJobsTotal 1243737
scalar FogSequentialForward.fog[37].dispatcher localJobs 1597573
scalar FogSequentialForward.fog[37].dispatcher internalJobs 1622348
scalar FogSequentialForward.fog[37].dispatcher externalJobs 3262006
scalar FogSequentialForward.fog[37].dispatcher remoteJobs 3261440
scalar FogSequentialForward.fog[37].dispatcher probeQueries 0
scalar FogSequentialForward.fog[37].dispatcher probeAnswers 0
scalar FogSequentialForward.fog[37].dispatcher droppedJobsSLA 25341
scalar FogSequentialForward.fog[37].dispatcher jobs_class_1 4884354
scalar FogSequentialForward.fog[37].dispatcher remoteJobs_class_1 3261440
scalar FogSequentialForward.fog[37].dispatcher localJobs_class_1 1597573
scalar FogSequentialForward.fog[37].dispatcher droppedJobsSLA_class_1 25341
scalar FogSequentialForward.fog[37].server[0] rho 1
scalar FogSequentialForward.fog[37].server[0] congestionRatio 0
scalar FogSequentialForward.fog[37].server[0] totalJobs 1597573
scalar FogSequentialForward.fog[37].server[0] droppedJobsQueue 167985
scalar FogSequentialForward.fog[37].server[0] droppedJobsTimout 0
scalar FogSequentialForward.fog[37].server[0] droppedJobsSLA 1075656
scalar FogSequentialForward.fog[37].server[0] droppedJobsTotal 1243641
scalar FogSequentialForward.fog[38].dispatcher localJobs 1597503
scalar FogSequentialForward.fog[38].dispatcher internalJobs 1625176
scalar FogSequentialForward.fog[38].dispatcher externalJobs 3256130
scalar FogSequentialForward.fog[38].dispatcher remoteJobs 3258576
scalar FogSequentialForward.fog[38].dispatcher probeQueries 0
scalar FogSequentialForward.fog[38].dispatcher probeAnswers 0
scalar FogSequentialForward.fog[38].dispatcher droppedJobsSLA 25227
scalar FogSequentialForward.fog[38].dispatcher jobs_class_1 4881306
scalar FogSequentialForward.fog[38].dispatcher remoteJobs_class_1 3258576
scalar FogSequentialForward.fog[38].dispatcher localJobs_class_1 1597503
scalar FogSequentialForward.fog[38].dispatcher droppedJobsSLA_class_1 25227
scalar FogSequentialForward.fog[38].server[0] rho 1
scalar FogSequentialForward.fog[38].server[0] congestionRatio 0
scalar FogSequentialForward.fog[38].server[0] totalJobs 1597503
scalar FogSequentialForward.fog[38].server[0] droppedJobsQueue 167916
scalar FogSequentialForward.fog[38].server[0] droppedJobsTimout 0
scalar FogSequentialForward.fog[38].server[0] droppedJobsSLA 1075050
scalar FogSequentialForward.fog[38].server[0] droppedJobsTotal 1242966
scalar FogSequentialForward.fog[39].dispatcher localJobs 1597832
scalar FogSequentialForward.fog[39].dispatcher internalJobs 1623804
scalar FogSequentialForward.fog[39].dispatcher externalJobs 3257875
scalar FogSequentialForward.fog[39].dispatcher remoteJobs 3258360
scalar FogSequentialForward.fog[39].dispatcher probeQueries 0
scalar FogSequentialForward.fog[39].dispatcher probeAnswers 0
scalar FogSequentialForward.fog[39].dispatcher droppedJobsSLA 25487
scalar FogSequentialForward.fog[39].dispatcher jobs_class_1 4881679
scalar FogSequentialForward.fog[39].dispatcher remoteJobs_class_1 3258360
scalar FogSequentialForward.fog[39].dispatcher localJobs_class_1 1597832
scalar FogSequentialForward.fog[39].dispatcher droppedJobsSLA_class_1 25487
scalar FogSequentialForward.fog[39].server[0] rho 1
scalar FogSequentialForward.fog[39].server[0] congestionRatio 0
scalar FogSequentialForward.fog[39].server[0] totalJobs 1597832
scalar FogSequentialForward.fog[39].server[0] droppedJobsQueue 168044
scalar FogSequentialForward.fog[39].server[0] droppedJobsTimout 0
scalar FogSequentialForward.fog[39].server[0] droppedJobsSLA 1075880
scalar FogSequentialForward.fog[39].server[0] droppedJobsTotal 1243924
scalar FogSequentialForward.fog[40].dispatcher localJobs 1597662
scalar FogSequentialForward.fog[40].dispatcher internalJobs 1623567
scalar FogSequentialForward.fog[40].dispatcher externalJobs 3259553
scalar FogSequentialForward.fog[40].dispatcher remoteJobs 3260277
scalar FogSequentialForward.fog[40].dispatcher probeQueries 0
scalar FogSequentialForward.fog[40].dispatcher probeAnswers 0
scalar FogSequentialForward.fog[40].dispatcher droppedJobsSLA 25181
scalar FogSequentialForward.fog[40].dispatcher jobs_class_1 4883120
scalar FogSequentialForward.fog[40].dispatcher remoteJobs_class_1 3260277
scalar FogSequentialForward.fog[40].dispatcher localJobs_class_1 1597662
scalar FogSequentialForward.fog[40].dispatcher droppedJobsSLA_class_1 25181
scalar FogSequentialForward.fog[40].server[0] rho 1
scalar FogSequentialForward.fog[40].server[0] congestionRatio 0
scalar FogSequentialForward.fog[40].server[0] totalJobs 1597662
scalar FogSequentialForward.fog[40].server[0] droppedJobsQueue 168276
scalar FogSequentialForward.fog[40].server[0] droppedJobsTimout 0
scalar FogSequentialForward.fog[40].server[0] droppedJobsSLA 1074969
scalar FogSequentialForward.fog[40].server[0] droppedJobsTotal 1243245
scalar FogSequentialForward.fog[41].dispatcher localJobs 1597434
scalar FogSequentialForward.fog[41].dispatcher internalJobs 1623647
scalar FogSequentialForward.fog[41].dispatcher externalJobs 3259589
scalar FogSequentialForward.fog[41].dispatcher remoteJobs 3260452
scalar FogSequentialForward.fog[41].dispatcher probeQueries 0
scalar FogSequentialForward.fog[41].dispatcher probeAnswers 0
scalar FogSequentialForward.fog[41].dispatcher droppedJobsSLA 25350
scalar FogSequentialForward.fog[41].dispatcher jobs_class_1 4883236
scalar FogSequentialForward.fog[41].dispatcher remoteJobs_class_1 3260452
scalar FogSequentialForward.fog[41].dispatcher localJobs_class_1 1597434
scalar FogSequentialForward.fog[41].dispatcher droppedJobsSLA_class_1 25350
scalar FogSequentialForward.fog[41].server[0] rho 1
scalar FogSequentialForward.fog[41].server[0] congestionRatio 0
scalar FogSequentialForward.fog[41].server[0] totalJobs 1597434
scalar FogSequentialForward.fog[41].server[0] droppedJobsQueue 168278
scalar FogSequentialForward.fog[41].server[0] droppedJobsTimout 0
scalar FogSequentialForward.fog[41].server[0] droppedJobsSLA 1075385
scalar FogSequentialForward.fog[41].server[0] droppedJobsTotal 1243663
scalar FogSequentialForward.fog[42].dispatcher localJobs 1598394
scalar FogSequentialForward.fog[42].dispatcher internalJobs 1625715
scalar FogSequentialForward.fog[42].dispatcher externalJobs 3261559
scalar FogSequentialForward.fog[42].dispatcher remoteJobs 3263251
scalar FogSequentialForward.fog[42].dispatcher probeQueries 0
scalar FogSequentialForward.fog[42].dispatcher probeAnswers 0
scalar FogSequentialForward.fog[42].dispatcher droppedJobsSLA 25629
scalar FogSequentialForward.fog[42].dispatcher jobs_class_1 4887274
scalar FogSequentialForward.fog[42].dispatcher remoteJobs_class_1 3263251
scalar FogSequentialForward.fog[42].dispatcher localJobs_class_1 1598394
scalar FogSequentialForward.fog[42].dispatcher droppedJobsSLA_class_1 25629
scalar FogSequentialForward.fog[42].server[0] rho 1
scalar FogSequentialForward.fog[42].server[0] congestionRatio 0
scalar FogSequentialForward.fog[42].server[0] totalJobs 1598394
scalar FogSequentialForward.fog[42].server[0] droppedJobsQueue 168931
scalar FogSequentialForward.fog[42].server[0] droppedJobsTimout 0
scalar FogSequentialForward.fog[42].server[0] droppedJobsSLA 1076642
scalar FogSequentialForward.fog[42].server[0] droppedJobsTotal 1245573
scalar FogSequentialForward.fog[43].dispatcher localJobs 1597895
scalar FogSequentialForward.fog[43].dispatcher internalJobs 1623006
scalar FogSequentialForward.fog[43].dispatcher externalJobs 3262727
scalar FogSequentialForward.fog[43].dispatcher remoteJobs 3262508
scalar FogSequentialForward.fog[43].dispatcher probeQueries 0
scalar FogSequentialForward.fog[43].dispatcher probeAnswers 0
scalar FogSequentialForward.fog[43].dispatcher droppedJobsSLA 25330
scalar FogSequentialForward.fog[43].dispatcher jobs_class_1 4885733
scalar FogSequentialForward.fog[43].dispatcher remoteJobs_class_1 3262508
scalar FogSequentialForward.fog[43].dispatcher localJobs_class_1 1597895
scalar FogSequentialForward.fog[43].dispatcher droppedJobsSLA_class_1 25330
scalar FogSequentialForward.fog[43].server[0] rho 1
scalar FogSequentialForward.fog[43].server[0] congestionRatio 0
scalar FogSequentialForward.fog[43].server[0] totalJobs 1597895
scalar FogSequentialForward.fog[43].server[0] droppedJobsQueue 168276
scalar FogSequentialForward.fog[43].server[0] droppedJobsTimout 0
scalar FogSequentialForward.fog[43].server[0] droppedJobsSLA 1075639
scalar FogSequentialForward.fog[43].server[0] droppedJobsTotal 1243915
scalar FogSequentialForward.fog[44].dispatcher localJobs 1597978
scalar FogSequentialForward.fog[44].dispatcher internalJobs 1624503
scalar FogSequentialForward.fog[44].dispatcher externalJobs 3260899
scalar FogSequentialForward.fog[44].dispatcher remoteJobs 3262294
scalar FogSequentialForward.fog[44].dispatcher probeQueries 0
scalar FogSequentialForward.fog[44].dispatcher probeAnswers 0
scalar FogSequentialForward.fog[44].dispatcher droppedJobsSLA 25130
scalar FogSequentialForward.fog[44].dispatcher jobs_class_1 4885402
scalar FogSequentialForward.fog[44].dispatcher remoteJobs_class_1 3262294
scalar FogSequentialForward.fog[44].dispatcher localJobs_class_1 1597978
scalar FogSequentialForward.fog[44].dispatcher droppedJobsSLA_class_1 25130
scalar FogSequentialForward.fog[44].server[0] rho 1
scalar FogSequentialForward.fog[44].server[0] congestionRatio 0
scalar FogSequentialForward.fog[44].server[0] totalJobs 1597978
scalar FogSequentialForward.fog[44].server[0] droppedJobsQueue 168270
scalar FogSequentialForward.fog[44].server[0] droppedJobsTimout 0
scalar FogSequentialForward.fog[44].server[0] droppedJobsSLA 1076011
scalar FogSequentialForward.fog[44].server[0] droppedJobsTotal 1244281
scalar FogSequentialForward.fog[45].dispatcher localJobs 1597583
scalar FogSequentialForward.fog[45].dispatcher internalJobs 1620560
scalar FogSequentialForward.fog[45].dispatcher externalJobs 3261188
scalar FogSequentialForward.fog[45].dispatcher remoteJobs 3258853
scalar FogSequentialForward.fog[45].dispatcher probeQueries 0
scalar FogSequentialForward.fog[45].dispatcher probeAnswers 0
scalar FogSequentialForward.fog[45].dispatcher droppedJobsSLA 25312
scalar FogSequentialForward.fog[45].dispatcher jobs_class_1 4881748
scalar FogSequentialForward.fog[45].dispatcher remoteJobs_class_1 3258853
scalar FogSequentialForward.fog[45].dispatcher localJobs_class_1 1597583
scalar FogSequentialForward.fog[45].dispatcher droppedJobsSLA_class_1 25312
scalar FogSequentialForward.fog[45].server[0] rho 1
scalar FogSequentialForward.fog[45].server[0] congestionRatio 0
scalar FogSequentialForward.fog[45].server[0] totalJobs 1597583
scalar FogSequentialForward.fog[45].server[0] droppedJobsQueue 167955
scalar FogSequentialForward.fog[45].server[0] droppedJobsTimout 0
scalar FogSequentialForward.fog[45].server[0] droppedJobsSLA 1075895
scalar FogSequentialForward.fog[45].server[0] droppedJobsTotal 1243850
scalar FogSequentialForward.fog[46].dispatcher localJobs 1597614
scalar FogSequentialForward.fog[46].dispatcher internalJobs 1623823
scalar FogSequentialForward.fog[46].dispatcher externalJobs 3262160
scalar FogSequentialForward.fog[46].dispatcher remoteJobs 3263080
scalar FogSequentialForward.fog[46].dispatcher probeQueries 0
scalar FogSequentialForward.fog[46].dispatcher probeAnswers 0
scalar FogSequentialForward.fog[46].dispatcher droppedJobsSLA 25289
scalar FogSequentialForward.fog[46].dispatcher jobs_class_1 4885983
scalar FogSequentialForward.fog[46].dispatcher remoteJobs_class_1 3263080
scalar FogSequentialForward.fog[46].dispatcher localJobs_class_1 1597614
scalar FogSequentialForward.fog[46].dispatcher droppedJobsSLA_class_1 25289
scalar FogSequentialForward.fog[46].server[0] rho 1
scalar FogSequentialForward.fog[46].server[0] congestionRatio 0
scalar FogSequentialForward.fog[46].server[0] totalJobs 1597614
scalar FogSequentialForward.fog[46].server[0] droppedJobsQueue 168191
scalar FogSequentialForward.fog[46].server[0] droppedJobsTimout 0
scalar FogSequentialForward.fog[46].server[0] droppedJobsSLA 1076437
scalar FogSequentialForward.fog[46].server[0] droppedJobsTotal 1244628
scalar FogSequentialForward.fog[47].dispatcher localJobs 1598051
scalar FogSequentialForward.fog[47].dispatcher internalJobs 1622120
scalar FogSequentialForward.fog[47].dispatcher externalJobs 3260870
scalar FogSequentialForward.fog[47].dispatcher remoteJobs 3259514
scalar FogSequentialForward.fog[47].dispatcher probeQueries 0
scalar FogSequentialForward.fog[47].dispatcher probeAnswers 0
scalar FogSequentialForward.fog[47].dispatcher droppedJobsSLA 25425
scalar FogSequentialForward.fog[47].dispatcher jobs_class_1 4882990
scalar FogSequentialForward.fog[47].dispatcher remoteJobs_class_1 3259514
scalar FogSequentialForward.fog[47].dispatcher localJobs_class_1 1598051
scalar FogSequentialForward.fog[47].dispatcher droppedJobsSLA_class_1 25425
scalar FogSequentialForward.fog[47].server[0] rho 1
scalar FogSequentialForward.fog[47].server[0] congestionRatio 0
scalar FogSequentialForward.fog[47].server[0] totalJobs 1598051
scalar FogSequentialForward.fog[47].server[0] droppedJobsQueue 167861
scalar FogSequentialForward.fog[47].server[0] droppedJobsTimout 0
scalar FogSequentialForward.fog[47].server[0] droppedJobsSLA 1076257
scalar FogSequentialForward.fog[47].server[0] droppedJobsTotal 1244118
scalar FogSequentialForward.fog[48].dispatcher localJobs 1598022
scalar FogSequentialForward.fog[48].dispatcher internalJobs 1622511
scalar FogSequentialForward.fog[48].dispatcher externalJobs 3259315
scalar FogSequentialForward.fog[48].dispatcher remoteJobs 3258638
scalar FogSequentialForward.fog[48].dispatcher probeQueries 0
scalar FogSequentialForward.fog[48].dispatcher probeAnswers 0
scalar FogSequentialForward.fog[48].dispatcher droppedJobsSLA 25166
scalar FogSequentialForward.fog[48].dispatcher jobs_class_1 4881826
scalar FogSequentialForward.fog[48].dispatcher remoteJobs_class_1 3258638
scalar FogSequentialForward.fog[48].dispatcher localJobs_class_1 1598022
scalar FogSequentialForward.fog[48].dispatcher droppedJobsSLA_class_1 25166
scalar FogSequentialForward.fog[48].server[0] rho 1
scalar FogSequentialForward.fog[48].server[0] congestionRatio 0
scalar FogSequentialForward.fog[48].server[0] totalJobs 1598022
scalar FogSequentialForward.fog[48].server[0] droppedJobsQueue 168139
scalar FogSequentialForward.fog[48].server[0] droppedJobsTimout 0
scalar FogSequentialForward.fog[48].server[0] droppedJobsSLA 1077139
scalar FogSequentialForward.fog[48].server[0] droppedJobsTotal 1245278
scalar FogSequentialForward.fog[49].dispatcher localJobs 1597492
scalar FogSequentialForward.fog[49].dispatcher internalJobs 1624764
scalar FogSequentialForward.fog[49].dispatcher externalJobs 3263185
scalar FogSequentialForward.fog[49].dispatcher remoteJobs 3265271
scalar FogSequentialForward.fog[49].dispatcher probeQueries 0
scalar FogSequentialForward.fog[49].dispatcher probeAnswers 0
scalar FogSequentialForward.fog[49].dispatcher droppedJobsSLA 25186
scalar FogSequentialForward.fog[49].dispatcher jobs_class_1 4887949
scalar FogSequentialForward.fog[49].dispatcher remoteJobs_class_1 3265271
scalar FogSequentialForward.fog[49].dispatcher localJobs_class_1 1597492
scalar FogSequentialForward.fog[49].dispatcher droppedJobsSLA_class_1 25186
scalar FogSequentialForward.fog[49].server[0] rho 1
scalar FogSequentialForward.fog[49].server[0] congestionRatio 0
scalar FogSequentialForward.fog[49].server[0] totalJobs 1597492
scalar FogSequentialForward.fog[49].server[0] droppedJobsQueue 168218
scalar FogSequentialForward.fog[49].server[0] droppedJobsTimout 0
scalar FogSequentialForward.fog[49].server[0] droppedJobsSLA 1075916
scalar FogSequentialForward.fog[49].server[0] droppedJobsTotal 1244134
scalar FogSequentialForward.fog[50].dispatcher localJobs 1598825
scalar FogSequentialForward.fog[50].dispatcher internalJobs 1619105
scalar FogSequentialForward.fog[50].dispatcher externalJobs 3265563
scalar FogSequentialForward.fog[50].dispatcher remoteJobs 3260549
scalar FogSequentialForward.fog[50].dispatcher probeQueries 0
scalar FogSequentialForward.fog[50].dispatcher probeAnswers 0
scalar FogSequentialForward.fog[50].dispatcher droppedJobsSLA 25294
scalar FogSequentialForward.fog[50].dispatcher jobs_class_1 4884668
scalar FogSequentialForward.fog[50].dispatcher remoteJobs_class_1 3260549
scalar FogSequentialForward.fog[50].dispatcher localJobs_class_1 1598825
scalar FogSequentialForward.fog[50].dispatcher droppedJobsSLA_class_1 25294
scalar FogSequentialForward.fog[50].server[0] rho 0.99999994039536
scalar FogSequentialForward.fog[50].server[0] congestionRatio 0
scalar FogSequentialForward.fog[50].server[0] totalJobs 1598825
scalar FogSequentialForward.fog[50].server[0] droppedJobsQueue 168282
scalar FogSequentialForward.fog[50].server[0] droppedJobsTimout 0
scalar FogSequentialForward.fog[50].server[0] droppedJobsSLA 1077015
scalar FogSequentialForward.fog[50].server[0] droppedJobsTotal 1245297
scalar FogSequentialForward.fog[51].dispatcher localJobs 1597340
scalar FogSequentialForward.fog[51].dispatcher internalJobs 1622439
scalar FogSequentialForward.fog[51].dispatcher externalJobs 3257465
scalar FogSequentialForward.fog[51].dispatcher remoteJobs 3257503
scalar FogSequentialForward.fog[51].dispatcher probeQueries 0
scalar FogSequentialForward.fog[51].dispatcher probeAnswers 0
scalar FogSequentialForward.fog[51].dispatcher droppedJobsSLA 25061
scalar FogSequentialForward.fog[51].dispatcher jobs_class_1 4879904
scalar FogSequentialForward.fog[51].dispatcher remoteJobs_class_1 3257503
scalar FogSequentialForward.fog[51].dispatcher localJobs_class_1 1597340
scalar FogSequentialForward.fog[51].dispatcher droppedJobsSLA_class_1 25061
scalar FogSequentialForward.fog[51].server[0] rho 1
scalar FogSequentialForward.fog[51].server[0] congestionRatio 0
scalar FogSequentialForward.fog[51].server[0] totalJobs 1597340
scalar FogSequentialForward.fog[51].server[0] droppedJobsQueue 168068
scalar FogSequentialForward.fog[51].server[0] droppedJobsTimout 0
scalar FogSequentialForward.fog[51].server[0] droppedJobsSLA 1075691
scalar FogSequentialForward.fog[51].server[0] droppedJobsTotal 1243759
scalar FogSequentialForward.fog[52].dispatcher localJobs 1597565
scalar FogSequentialForward.fog[52].dispatcher internalJobs 1624155
scalar FogSequentialForward.fog[52].dispatcher externalJobs 3259965
scalar FogSequentialForward.fog[52].dispatcher remoteJobs 3261052
scalar FogSequentialForward.fog[52].dispatcher probeQueries 0
scalar FogSequentialForward.fog[52].dispatcher probeAnswers 0
scalar FogSequentialForward.fog[52].dispatcher droppedJobsSLA 25503
scalar FogSequentialForward.fog[52].dispatcher jobs_class_1 4884120
scalar FogSequentialForward.fog[52].dispatcher remoteJobs_class_1 3261052
scalar FogSequentialForward.fog[52].dispatcher localJobs_class_1 1597565
scalar FogSequentialForward.fog[52].dispatcher droppedJobsSLA_class_1 25503
scalar FogSequentialForward.fog[52].server[0] rho 1
scalar FogSequentialForward.fog[52].server[0] congestionRatio 0
scalar FogSequentialForward.fog[52].server[0] totalJobs 1597565
scalar FogSequentialForward.fog[52].server[0] droppedJobsQueue 168367
scalar FogSequentialForward.fog[52].server[0] droppedJobsTimout 0
scalar FogSequentialForward.fog[52].server[0] droppedJobsSLA 1075699
scalar FogSequentialForward.fog[52].server[0] droppedJobsTotal 1244066
scalar FogSequentialForward.fog[53].dispatcher localJobs 1597583
scalar FogSequentialForward.fog[53].dispatcher internalJobs 1623025
scalar FogSequentialForward.fog[53].dispatcher externalJobs 3261186
scalar FogSequentialForward.fog[53].dispatcher remoteJobs 3261104
scalar FogSequentialForward.fog[53].dispatcher probeQueries 0
scalar FogSequentialForward.fog[53].dispatcher probeAnswers 0
scalar FogSequentialForward.fog[53].dispatcher droppedJobsSLA 25524
scalar FogSequentialForward.fog[53].dispatcher jobs_class_1 4884211
scalar FogSequentialForward.fog[53].dispatcher remoteJobs_class_1 3261104
scalar FogSequentialForward.fog[53].dispatcher localJobs_class_1 1597583
scalar FogSequentialForward.fog[53].dispatcher droppedJobsSLA_class_1 25524
scalar FogSequentialForward.fog[53].server[0] rho 1
scalar FogSequentialForward.fog[53].server[0] congestionRatio 0
scalar FogSequentialForward.fog[53].server[0] totalJobs 1597583
scalar FogSequentialForward.fog[53].server[0] droppedJobsQueue 168133
scalar FogSequentialForward.fog[53].server[0] droppedJobsTimout 0
scalar FogSequentialForward.fog[53].server[0] droppedJobsSLA 1076876
scalar FogSequentialForward.fog[53].server[0] droppedJobsTotal 1245009
scalar FogSequentialForward.fog[54].dispatcher localJobs 1597981
scalar FogSequentialForward.fog[54].dispatcher internalJobs 1625451
scalar FogSequentialForward.fog[54].dispatcher externalJobs 3259187
scalar FogSequentialForward.fog[54].dispatcher remoteJobs 3261167
scalar FogSequentialForward.fog[54].dispatcher probeQueries 0
scalar FogSequentialForward.fog[54].dispatcher probeAnswers 0
scalar FogSequentialForward.fog[54].dispatcher droppedJobsSLA 25490
scalar FogSequentialForward.fog[54].dispatcher jobs_class_1 4884638
scalar FogSequentialForward.fog[54].dispatcher remoteJobs_class_1 3261167
scalar FogSequentialForward.fog[54].dispatcher localJobs_class_1 1597981
scalar FogSequentialForward.fog[54].dispatcher droppedJobsSLA_class_1 25490
scalar FogSequentialForward.fog[54].server[0] rho 1
scalar FogSequentialForward.fog[54].server[0] congestionRatio 0
scalar FogSequentialForward.fog[54].server[0] totalJobs 1597981
scalar FogSequentialForward.fog[54].server[0] droppedJobsQueue 168390
scalar FogSequentialForward.fog[54].server[0] droppedJobsTimout 0
scalar FogSequentialForward.fog[54].server[0] droppedJobsSLA 1074962
scalar FogSequentialForward.fog[54].server[0] droppedJobsTotal 1243352
scalar FogSequentialForward.fog[55].dispatcher localJobs 1596880
scalar FogSequentialForward.fog[55].dispatcher internalJobs 1622522
scalar FogSequentialForward.fog[55].dispatcher externalJobs 3260333
scalar FogSequentialForward.fog[55].dispatcher remoteJobs 3260620
scalar FogSequentialForward.fog[55].dispatcher probeQueries 0
scalar FogSequentialForward.fog[55].dispatcher probeAnswers 0
scalar FogSequentialForward.fog[55].dispatcher droppedJobsSLA 25355
scalar FogSequentialForward.fog[55].dispatcher jobs_class_1 4882855
scalar FogSequentialForward.fog[55].dispatcher remoteJobs_class_1 3260620
scalar FogSequentialForward.fog[55].dispatcher localJobs_class_1 1596880
scalar FogSequentialForward.fog[55].dispatcher droppedJobsSLA_class_1 25355
scalar FogSequentialForward.fog[55].server[0] rho 0.99999988079071
scalar FogSequentialForward.fog[55].server[0] congestionRatio 0
scalar FogSequentialForward.fog[55].server[0] totalJobs 1596880
scalar FogSequentialForward.fog[55].server[0] droppedJobsQueue 167941
scalar FogSequentialForward.fog[55].server[0] droppedJobsTimout 0
scalar FogSequentialForward.fog[55].server[0] droppedJobsSLA 1075799
scalar FogSequentialForward.fog[55].server[0] droppedJobsTotal 1243740
scalar FogSequentialForward.fog[56].dispatcher localJobs 1598160
scalar FogSequentialForward.fog[56].dispatcher internalJobs 1621559
scalar FogSequentialForward.fog[56].dispatcher externalJobs 3260335
scalar FogSequentialForward.fog[56].dispatcher remoteJobs 3258460
scalar FogSequentialForward.fog[56].dispatcher probeQueries 0
scalar FogSequentialForward.fog[56].dispatcher probeAnswers 0
scalar FogSequentialForward.fog[56].dispatcher droppedJobsSLA 25274
scalar FogSequentialForward.fog[56].dispatcher jobs_class_1 4881894
scalar FogSequentialForward.fog[56].dispatcher remoteJobs_class_1 3258460
scalar FogSequentialForward.fog[56].dispatcher localJobs_class_1 1598160
scalar FogSequentialForward.fog[56].dispatcher droppedJobsSLA_class_1 25274
scalar FogSequentialForward.fog[56].server[0] rho 1
scalar FogSequentialForward.fog[56].server[0] congestionRatio 0
scalar FogSequentialForward.fog[56].server[0] totalJobs 1598160
scalar FogSequentialForward.fog[56].server[0] droppedJobsQueue 168124
scalar FogSequentialForward.fog[56].server[0] droppedJobsTimout 0
scalar FogSequentialForward.fog[56].server[0] droppedJobsSLA 1075884
scalar FogSequentialForward.fog[56].server[0] droppedJobsTotal 1244008
scalar FogSequentialForward.fog[57].dispatcher localJobs 1597273
scalar FogSequentialForward.fog[57].dispatcher internalJobs 1623200
scalar FogSequentialForward.fog[57].dispatcher externalJobs 3263245
scalar FogSequentialForward.fog[57].dispatcher remoteJobs 3263972
scalar FogSequentialForward.fog[57].dispatcher probeQueries 0
scalar FogSequentialForward.fog[57].dispatcher probeAnswers 0
scalar FogSequentialForward.fog[57].dispatcher droppedJobsSLA 25200
scalar FogSequentialForward.fog[57].dispatcher jobs_class_1 4886445
scalar FogSequentialForward.fog[57].dispatcher remoteJobs_class_1 3263972
scalar FogSequentialForward.fog[57].dispatcher localJobs_class_1 1597273
scalar FogSequentialForward.fog[57].dispatcher droppedJobsSLA_class_1 25200
scalar FogSequentialForward.fog[57].server[0] rho 1
scalar FogSequentialForward.fog[57].server[0] congestionRatio 0
scalar FogSequentialForward.fog[57].server[0] totalJobs 1597273
scalar FogSequentialForward.fog[57].server[0] droppedJobsQueue 167992
scalar FogSequentialForward.fog[57].server[0] droppedJobsTimout 0
scalar FogSequentialForward.fog[57].server[0] droppedJobsSLA 1075757
scalar FogSequentialForward.fog[57].server[0] droppedJobsTotal 1243749
scalar FogSequentialForward.fog[58].dispatcher localJobs 1597849
scalar FogSequentialForward.fog[58].dispatcher internalJobs 1622903
scalar FogSequentialForward.fog[58].dispatcher externalJobs 3260089
scalar FogSequentialForward.fog[58].dispatcher remoteJobs 3259721
scalar FogSequentialForward.fog[58].dispatcher probeQueries 0
scalar FogSequentialForward.fog[58].dispatcher probeAnswers 0
scalar FogSequentialForward.fog[58].dispatcher droppedJobsSLA 25422
scalar FogSequentialForward.fog[58].dispatcher jobs_class_1 4882992
scalar FogSequentialForward.fog[58].dispatcher remoteJobs_class_1 3259721
scalar FogSequentialForward.fog[58].dispatcher localJobs_class_1 1597849
scalar FogSequentialForward.fog[58].dispatcher droppedJobsSLA_class_1 25422
scalar FogSequentialForward.fog[58].server[0] rho 1
scalar FogSequentialForward.fog[58].server[0] congestionRatio 0
scalar FogSequentialForward.fog[58].server[0] totalJobs 1597849
scalar FogSequentialForward.fog[58].server[0] droppedJobsQueue 168408
scalar FogSequentialForward.fog[58].server[0] droppedJobsTimout 0
scalar FogSequentialForward.fog[58].server[0] droppedJobsSLA 1075423
scalar FogSequentialForward.fog[58].server[0] droppedJobsTotal 1243831
scalar FogSequentialForward.fog[59].dispatcher localJobs 1598340
scalar FogSequentialForward.fog[59].dispatcher internalJobs 1623115
scalar FogSequentialForward.fog[59].dispatcher externalJobs 3261272
scalar FogSequentialForward.fog[59].dispatcher remoteJobs 3260532
scalar FogSequentialForward.fog[59].dispatcher probeQueries 0
scalar FogSequentialForward.fog[59].dispatcher probeAnswers 0
scalar FogSequentialForward.fog[59].dispatcher droppedJobsSLA 25515
scalar FogSequentialForward.fog[59].dispatcher jobs_class_1 4884387
scalar FogSequentialForward.fog[59].dispatcher remoteJobs_class_1 3260532
scalar FogSequentialForward.fog[59].dispatcher localJobs_class_1 1598340
scalar FogSequentialForward.fog[59].dispatcher droppedJobsSLA_class_1 25515
scalar FogSequentialForward.fog[59].server[0] rho 1
scalar FogSequentialForward.fog[59].server[0] congestionRatio 0
scalar FogSequentialForward.fog[59].server[0] totalJobs 1598340
scalar FogSequentialForward.fog[59].server[0] droppedJobsQueue 168380
scalar FogSequentialForward.fog[59].server[0] droppedJobsTimout 0
scalar FogSequentialForward.fog[59].server[0] droppedJobsSLA 1075692
scalar FogSequentialForward.fog[59].server[0] droppedJobsTotal 1244072
scalar FogSequentialForward.fog[60].dispatcher localJobs 1597058
scalar FogSequentialForward.fog[60].dispatcher internalJobs 1622821
scalar FogSequentialForward.fog[60].dispatcher externalJobs 3261244
scalar FogSequentialForward.fog[60].dispatcher remoteJobs 3261384
scalar FogSequentialForward.fog[60].dispatcher probeQueries 0
scalar FogSequentialForward.fog[60].dispatcher probeAnswers 0
scalar FogSequentialForward.fog[60].dispatcher droppedJobsSLA 25623
scalar FogSequentialForward.fog[60].dispatcher jobs_class_1 4884065
scalar FogSequentialForward.fog[60].dispatcher remoteJobs_class_1 3261384
scalar FogSequentialForward.fog[60].dispatcher localJobs_class_1 1597058
scalar FogSequentialForward.fog[60].dispatcher droppedJobsSLA_class_1 25623
scalar FogSequentialForward.fog[60].server[0] rho 0.99999970197678
scalar FogSequentialForward.fog[60].server[0] congestionRatio 0
scalar FogSequentialForward.fog[60].server[0] totalJobs 1597058
scalar FogSequentialForward.fog[60].server[0] droppedJobsQueue 167978
scalar FogSequentialForward.fog[60].server[0] droppedJobsTimout 0
scalar FogSequentialForward.fog[60].server[0] droppedJobsSLA 1076057
scalar FogSequentialForward.fog[60].server[0] droppedJobsTotal 1244035
scalar FogSequentialForward.fog[61].dispatcher localJobs 1598225
scalar FogSequentialForward.fog[61].dispatcher internalJobs 1622023
scalar FogSequentialForward.fog[61].dispatcher externalJobs 3260101
scalar FogSequentialForward.fog[61].dispatcher remoteJobs 3258600
scalar FogSequentialForward.fog[61].dispatcher probeQueries 0
scalar FogSequentialForward.fog[61].dispatcher probeAnswers 0
scalar FogSequentialForward.fog[61].dispatcher droppedJobsSLA 25299
scalar FogSequentialForward.fog[61].dispatcher jobs_class_1 4882124
scalar FogSequentialForward.fog[61].dispatcher remoteJobs_class_1 3258600
scalar FogSequentialForward.fog[61].dispatcher localJobs_class_1 1598225
scalar FogSequentialForward.fog[61].dispatcher droppedJobsSLA_class_1 25299
scalar FogSequentialForward.fog[61].server[0] rho 1
scalar FogSequentialForward.fog[61].server[0] congestionRatio 0
scalar FogSequentialForward.fog[61].server[0] totalJobs 1598225
scalar FogSequentialForward.fog[61].server[0] droppedJobsQueue 168176
scalar FogSequentialForward.fog[61].server[0] droppedJobsTimout 0
scalar FogSequentialForward.fog[61].server[0] droppedJobsSLA 1076126
scalar FogSequentialForward.fog[61].server[0] droppedJobsTotal 1244302
scalar FogSequentialForward.fog[62].dispatcher localJobs 1597642
scalar FogSequentialForward.fog[62].dispatcher internalJobs 1623166
scalar FogSequentialForward.fog[62].dispatcher externalJobs 3261112
scalar FogSequentialForward.fog[62].dispatcher remoteJobs 3261188
scalar FogSequentialForward.fog[62].dispatcher probeQueries 0
scalar FogSequentialForward.fog[62].dispatcher probeAnswers 0
scalar FogSequentialForward.fog[62].dispatcher droppedJobsSLA 25448
scalar FogSequentialForward.fog[62].dispatcher jobs_class_1 4884278
scalar FogSequentialForward.fog[62].dispatcher remoteJobs_class_1 3261188
scalar FogSequentialForward.fog[62].dispatcher localJobs_class_1 1597642
scalar FogSequentialForward.fog[62].dispatcher droppedJobsSLA_class_1 25448
scalar FogSequentialForward.fog[62].server[0] rho 1
scalar FogSequentialForward.fog[62].server[0] congestionRatio 0
scalar FogSequentialForward.fog[62].server[0] totalJobs 1597642
scalar FogSequentialForward.fog[62].server[0] droppedJobsQueue 168183
scalar FogSequentialForward.fog[62].server[0] droppedJobsTimout 0
scalar FogSequentialForward.fog[62].server[0] droppedJobsSLA 1075889
scalar FogSequentialForward.fog[62].server[0] droppedJobsTotal 1244072
scalar FogSequentialForward.fog[63].dispatcher localJobs 1597962
scalar FogSequentialForward.fog[63].dispatcher internalJobs 1622272
scalar FogSequentialForward.fog[63].dispatcher externalJobs 3262483
scalar FogSequentialForward.fog[63].dispatcher remoteJobs 3261181
scalar FogSequentialForward.fog[63].dispatcher probeQueries 0
scalar FogSequentialForward.fog[63].dispatcher probeAnswers 0
scalar FogSequentialForward.fog[63].dispatcher droppedJobsSLA 25612
scalar FogSequentialForward.fog[63].dispatcher jobs_class_1 4884755
scalar FogSequentialForward.fog[63].dispatcher remoteJobs_class_1 3261181
scalar FogSequentialForward.fog[63].dispatcher localJobs_class_1 1597962
scalar FogSequentialForward.fog[63].dispatcher droppedJobsSLA_class_1 25612
scalar FogSequentialForward.fog[63].server[0] rho 1
scalar FogSequentialForward.fog[63].server[0] congestionRatio 0
scalar FogSequentialForward.fog[63].server[0] totalJobs 1597962
scalar FogSequentialForward.fog[63].server[0] droppedJobsQueue 168139
scalar FogSequentialForward.fog[63].server[0] droppedJobsTimout 0
scalar FogSequentialForward.fog[63].server[0] droppedJobsSLA 1075901
scalar FogSequentialForward.fog[63].server[0] droppedJobsTotal 1244040
scalar FogSequentialForward.fog[64].dispatcher localJobs 1597459
scalar FogSequentialForward.fog[64].dispatcher internalJobs 1622466
scalar FogSequentialForward.fog[64].dispatcher externalJobs 3262008
scalar FogSequentialForward.fog[64].dispatcher remoteJobs 3261604
scalar FogSequentialForward.fog[64].dispatcher probeQueries 0
scalar FogSequentialForward.fog[64].dispatcher probeAnswers 0
scalar FogSequentialForward.fog[64].dispatcher droppedJobsSLA 25411
scalar FogSequentialForward.fog[64].dispatcher jobs_class_1 4884474
scalar FogSequentialForward.fog[64].dispatcher remoteJobs_class_1 3261604
scalar FogSequentialForward.fog[64].dispatcher localJobs_class_1 1597459
scalar FogSequentialForward.fog[64].dispatcher droppedJobsSLA_class_1 25411
scalar FogSequentialForward.fog[64].server[0] rho 1
scalar FogSequentialForward.fog[64].server[0] congestionRatio 0
scalar FogSequentialForward.fog[64].server[0] totalJobs 1597459
scalar FogSequentialForward.fog[64].server[0] droppedJobsQueue 167938
scalar FogSequentialForward.fog[64].server[0] droppedJobsTimout 0
scalar FogSequentialForward.fog[64].server[0] droppedJobsSLA 1075896
scalar FogSequentialForward.fog[64].server[0] droppedJobsTotal 1243834
scalar FogSequentialForward.fog[65].dispatcher localJobs 1597849
scalar FogSequentialForward.fog[65].dispatcher internalJobs 1624124
scalar FogSequentialForward.fog[65].dispatcher externalJobs 3261738
scalar FogSequentialForward.fog[65].dispatcher remoteJobs 3262408
scalar FogSequentialForward.fog[65].dispatcher probeQueries 0
scalar FogSequentialForward.fog[65].dispatcher probeAnswers 0
[...]
scalar FogSequentialForward.fog[84].dispatcher jobs_class_1 4883072
scalar FogSequentialForward.fog[84].dispatcher remoteJobs_class_1 3261144
scalar FogSequentialForward.fog[84].dispatcher localJobs_class_1 1596764
scalar FogSequentialForward.fog[84].dispatcher droppedJobsSLA_class_1 25164
scalar FogSequentialForward.fog[84].server[0] rho 1
scalar FogSequentialForward.fog[84].server[0] congestionRatio 0
scalar FogSequentialForward.fog[84].server[0] totalJobs 1596764
scalar FogSequentialForward.fog[84].server[0] droppedJobsQueue 167765
scalar FogSequentialForward.fog[84].server[0] droppedJobsTimout 0
scalar FogSequentialForward.fog[84].server[0] droppedJobsSLA 1075127
scalar FogSequentialForward.fog[84].server[0] droppedJobsTotal 1242892
scalar FogSequentialForward.fog[85].dispatcher localJobs 1597650
scalar FogSequentialForward.fog[85].dispatcher internalJobs 1622351
scalar FogSequentialForward.fog[85].dispatcher externalJobs 3261334
scalar FogSequentialForward.fog[85].dispatcher remoteJobs 3260912
scalar FogSequentialForward.fog[85].dispatcher probeQueries 0
scalar FogSequentialForward.fog[85].dispatcher probeAnswers 0
scalar FogSequentialForward.fog[85].dispatcher droppedJobsSLA 25123
scalar FogSequentialForward.fog[85].dispatcher jobs_class_1 4883685
scalar FogSequentialForward.fog[85].dispatcher remoteJobs_class_1 3260912
scalar FogSequentialForward.fog[85].dispatcher localJobs_class_1 1597650
scalar FogSequentialForward.fog[85].dispatcher droppedJobsSLA_class_1 25123
scalar FogSequentialForward.fog[85].server[0] rho 1
scalar FogSequentialForward.fog[85].server[0] congestionRatio 0
scalar FogSequentialForward.fog[85].server[0] totalJobs 1597650
scalar FogSequentialForward.fog[85].server[0] droppedJobsQueue 168001
scalar FogSequentialForward.fog[85].server[0] droppedJobsTimout 0
scalar FogSequentialForward.fog[85].server[0] droppedJobsSLA 1076015
scalar FogSequentialForward.fog[85].server[0] droppedJobsTotal 1244016
scalar FogSequentialForward.fog[86].dispatcher localJobs 1598662
scalar FogSequentialForward.fog[86].dispatcher internalJobs 1624022
scalar FogSequentialForward.fog[86].dispatcher externalJobs 3262103
scalar FogSequentialForward.fog[86].dispatcher remoteJobs 3262155
scalar FogSequentialForward.fog[86].dispatcher probeQueries 0
scalar FogSequentialForward.fog[86].dispatcher probeAnswers 0
scalar FogSequentialForward.fog[86].dispatcher droppedJobsSLA 25308
scalar FogSequentialForward.fog[86].dispatcher jobs_class_1 4886125
scalar FogSequentialForward.fog[86].dispatcher remoteJobs_class_1 3262155
scalar FogSequentialForward.fog[86].dispatcher localJobs_class_1 1598662
scalar FogSequentialForward.fog[86].dispatcher droppedJobsSLA_class_1 25308
scalar FogSequentialForward.fog[86].server[0] rho 1
scalar FogSequentialForward.fog[86].server[0] congestionRatio 0
scalar FogSequentialForward.fog[86].server[0] totalJobs 1598662
scalar FogSequentialForward.fog[86].server[0] droppedJobsQueue 168275
scalar FogSequentialForward.fog[86].server[0] droppedJobsTimout 0
scalar FogSequentialForward.fog[86].server[0] droppedJobsSLA 1075983
scalar FogSequentialForward.fog[86].server[0] droppedJobsTotal 1244258
scalar FogSequentialForward.fog[87].dispatcher localJobs 1598126
scalar FogSequentialForward.fog[87].dispatcher internalJobs 1622299
scalar FogSequentialForward.fog[87].dispatcher externalJobs 3260230
scalar FogSequentialForward.fog[87].dispatcher remoteJobs 3259089
scalar FogSequentialForward.fog[87].dispatcher probeQueries 0
scalar FogSequentialForward.fog[87].dispatcher probeAnswers 0
scalar FogSequentialForward.fog[87].dispatcher droppedJobsSLA 25314
scalar FogSequentialForward.fog[87].dispatcher jobs_class_1 4882529
scalar FogSequentialForward.fog[87].dispatcher remoteJobs_class_1 3259089
scalar FogSequentialForward.fog[87].dispatcher localJobs_class_1 1598126
scalar FogSequentialForward.fog[87].dispatcher droppedJobsSLA_class_1 25314
scalar FogSequentialForward.fog[87].server[0] rho 1
scalar FogSequentialForward.fog[87].server[0] congestionRatio 0
scalar FogSequentialForward.fog[87].server[0] totalJobs 1598126
scalar FogSequentialForward.fog[87].server[0] droppedJobsQueue 168277
scalar FogSequentialForward.fog[87].server[0] droppedJobsTimout 0
scalar FogSequentialForward.fog[87].server[0] droppedJobsSLA 1075421
scalar FogSequentialForward.fog[87].server[0] droppedJobsTotal 1243698
scalar FogSequentialForward.fog[88].dispatcher localJobs 1597406
scalar FogSequentialForward.fog[88].dispatcher internalJobs 1624472
scalar FogSequentialForward.fog[88].dispatcher externalJobs 3257801
scalar FogSequentialForward.fog[88].dispatcher remoteJobs 3259682
scalar FogSequentialForward.fog[88].dispatcher probeQueries 0
scalar FogSequentialForward.fog[88].dispatcher probeAnswers 0
scalar FogSequentialForward.fog[88].dispatcher droppedJobsSLA 25185
scalar FogSequentialForward.fog[88].dispatcher jobs_class_1 4882273
scalar FogSequentialForward.fog[88].dispatcher remoteJobs_class_1 3259682
scalar FogSequentialForward.fog[88].dispatcher localJobs_class_1 1597406
scalar FogSequentialForward.fog[88].dispatcher droppedJobsSLA_class_1 25185
scalar FogSequentialForward.fog[88].server[0] rho 1
scalar FogSequentialForward.fog[88].server[0] congestionRatio 0
scalar FogSequentialForward.fog[88].server[0] totalJobs 1597406
scalar FogSequentialForward.fog[88].server[0] droppedJobsQueue 168022
scalar FogSequentialForward.fog[88].server[0] droppedJobsTimout 0
scalar FogSequentialForward.fog[88].server[0] droppedJobsSLA 1076179
scalar FogSequentialForward.fog[88].server[0] droppedJobsTotal 1244201
scalar FogSequentialForward.fog[89].dispatcher localJobs 1598259
scalar FogSequentialForward.fog[89].dispatcher internalJobs 1624239
scalar FogSequentialForward.fog[89].dispatcher externalJobs 3258628
scalar FogSequentialForward.fog[89].dispatcher remoteJobs 3259231
scalar FogSequentialForward.fog[89].dispatcher probeQueries 0
scalar FogSequentialForward.fog[89].dispatcher probeAnswers 0
scalar FogSequentialForward.fog[89].dispatcher droppedJobsSLA 25377
scalar FogSequentialForward.fog[89].dispatcher jobs_class_1 4882867
scalar FogSequentialForward.fog[89].dispatcher remoteJobs_class_1 3259231
scalar FogSequentialForward.fog[89].dispatcher localJobs_class_1 1598259
scalar FogSequentialForward.fog[89].dispatcher droppedJobsSLA_class_1 25377
scalar FogSequentialForward.fog[89].server[0] rho 1
scalar FogSequentialForward.fog[89].server[0] congestionRatio 0
scalar FogSequentialForward.fog[89].server[0] totalJobs 1598259
scalar FogSequentialForward.fog[89].server[0] droppedJobsQueue 168173
scalar FogSequentialForward.fog[89].server[0] droppedJobsTimout 0
scalar FogSequentialForward.fog[89].server[0] droppedJobsSLA 1076491
scalar FogSequentialForward.fog[89].server[0] droppedJobsTotal 1244664
scalar FogSequentialForward.fog[90].dispatcher localJobs 1597482
scalar FogSequentialForward.fog[90].dispatcher internalJobs 1622079
scalar FogSequentialForward.fog[90].dispatcher externalJobs 3261011
scalar FogSequentialForward.fog[90].dispatcher remoteJobs 3260139
scalar FogSequentialForward.fog[90].dispatcher probeQueries 0
scalar FogSequentialForward.fog[90].dispatcher probeAnswers 0
scalar FogSequentialForward.fog[90].dispatcher droppedJobsSLA 25469
scalar FogSequentialForward.fog[90].dispatcher jobs_class_1 4883090
scalar FogSequentialForward.fog[90].dispatcher remoteJobs_class_1 3260139
scalar FogSequentialForward.fog[90].dispatcher localJobs_class_1 1597482
scalar FogSequentialForward.fog[90].dispatcher droppedJobsSLA_class_1 25469
scalar FogSequentialForward.fog[90].server[0] rho 1
scalar FogSequentialForward.fog[90].server[0] congestionRatio 0
scalar FogSequentialForward.fog[90].server[0] totalJobs 1597482
scalar FogSequentialForward.fog[90].server[0] droppedJobsQueue 168053
scalar FogSequentialForward.fog[90].server[0] droppedJobsTimout 0
scalar FogSequentialForward.fog[90].server[0] droppedJobsSLA 1076326
scalar FogSequentialForward.fog[90].server[0] droppedJobsTotal 1244379
scalar FogSequentialForward.fog[91].dispatcher localJobs 1597296
scalar FogSequentialForward.fog[91].dispatcher internalJobs 1622114
scalar FogSequentialForward.fog[91].dispatcher externalJobs 3259143
scalar FogSequentialForward.fog[91].dispatcher remoteJobs 3258665
scalar FogSequentialForward.fog[91].dispatcher probeQueries 0
scalar FogSequentialForward.fog[91].dispatcher probeAnswers 0
scalar FogSequentialForward.fog[91].dispatcher droppedJobsSLA 25296
scalar FogSequentialForward.fog[91].dispatcher jobs_class_1 4881257
scalar FogSequentialForward.fog[91].dispatcher remoteJobs_class_1 3258665
scalar FogSequentialForward.fog[91].dispatcher localJobs_class_1 1597296
scalar FogSequentialForward.fog[91].dispatcher droppedJobsSLA_class_1 25296
scalar FogSequentialForward.fog[91].server[0] rho 1
scalar FogSequentialForward.fog[91].server[0] congestionRatio 0
scalar FogSequentialForward.fog[91].server[0] totalJobs 1597296
scalar FogSequentialForward.fog[91].server[0] droppedJobsQueue 168015
scalar FogSequentialForward.fog[91].server[0] droppedJobsTimout 0
scalar FogSequentialForward.fog[91].server[0] droppedJobsSLA 1076206
scalar FogSequentialForward.fog[91].server[0] droppedJobsTotal 1244221
scalar FogSequentialForward.fog[92].dispatcher localJobs 1596948
scalar FogSequentialForward.fog[92].dispatcher internalJobs 1622629
scalar FogSequentialForward.fog[92].dispatcher externalJobs 3259204
scalar FogSequentialForward.fog[92].dispatcher remoteJobs 3259745
scalar FogSequentialForward.fog[92].dispatcher probeQueries 0
scalar FogSequentialForward.fog[92].dispatcher probeAnswers 0
scalar FogSequentialForward.fog[92].dispatcher droppedJobsSLA 25140
scalar FogSequentialForward.fog[92].dispatcher jobs_class_1 4881833
scalar FogSequentialForward.fog[92].dispatcher remoteJobs_class_1 3259745
scalar FogSequentialForward.fog[92].dispatcher localJobs_class_1 1596948
scalar FogSequentialForward.fog[92].dispatcher droppedJobsSLA_class_1 25140
scalar FogSequentialForward.fog[92].server[0] rho 1
scalar FogSequentialForward.fog[92].server[0] congestionRatio 0
scalar FogSequentialForward.fog[92].server[0] totalJobs 1596948
scalar FogSequentialForward.fog[92].server[0] droppedJobsQueue 167878
scalar FogSequentialForward.fog[92].server[0] droppedJobsTimout 0
scalar FogSequentialForward.fog[92].server[0] droppedJobsSLA 1075282
scalar FogSequentialForward.fog[92].server[0] droppedJobsTotal 1243160
scalar FogSequentialForward.fog[93].dispatcher localJobs 1598143
scalar FogSequentialForward.fog[93].dispatcher internalJobs 1623419
scalar FogSequentialForward.fog[93].dispatcher externalJobs 3261013
scalar FogSequentialForward.fog[93].dispatcher remoteJobs 3260741
scalar FogSequentialForward.fog[93].dispatcher probeQueries 0
scalar FogSequentialForward.fog[93].dispatcher probeAnswers 0
scalar FogSequentialForward.fog[93].dispatcher droppedJobsSLA 25548
scalar FogSequentialForward.fog[93].dispatcher jobs_class_1 4884432
scalar FogSequentialForward.fog[93].dispatcher remoteJobs_class_1 3260741
scalar FogSequentialForward.fog[93].dispatcher localJobs_class_1 1598143
scalar FogSequentialForward.fog[93].dispatcher droppedJobsSLA_class_1 25548
scalar FogSequentialForward.fog[93].server[0] rho 1
scalar FogSequentialForward.fog[93].server[0] congestionRatio 0
scalar FogSequentialForward.fog[93].server[0] totalJobs 1598143
scalar FogSequentialForward.fog[93].server[0] droppedJobsQueue 168499
scalar FogSequentialForward.fog[93].server[0] droppedJobsTimout 0
scalar FogSequentialForward.fog[93].server[0] droppedJobsSLA 1075642
scalar FogSequentialForward.fog[93].server[0] droppedJobsTotal 1244141
scalar FogSequentialForward.fog[94].dispatcher localJobs 1599039
scalar FogSequentialForward.fog[94].dispatcher internalJobs 1623101
scalar FogSequentialForward.fog[94].dispatcher externalJobs 3264504
scalar FogSequentialForward.fog[94].dispatcher remoteJobs 3263266
scalar FogSequentialForward.fog[94].dispatcher probeQueries 0
scalar FogSequentialForward.fog[94].dispatcher probeAnswers 0
scalar FogSequentialForward.fog[94].dispatcher droppedJobsSLA 25300
scalar FogSequentialForward.fog[94].dispatcher jobs_class_1 4887605
scalar FogSequentialForward.fog[94].dispatcher remoteJobs_class_1 3263266
scalar FogSequentialForward.fog[94].dispatcher localJobs_class_1 1599039
scalar FogSequentialForward.fog[94].dispatcher droppedJobsSLA_class_1 25300
scalar FogSequentialForward.fog[94].server[0] rho 1
scalar FogSequentialForward.fog[94].server[0] congestionRatio 0
scalar FogSequentialForward.fog[94].server[0] totalJobs 1599039
scalar FogSequentialForward.fog[94].server[0] droppedJobsQueue 168613
scalar FogSequentialForward.fog[94].server[0] droppedJobsTimout 0
scalar FogSequentialForward.fog[94].server[0] droppedJobsSLA 1076919
scalar FogSequentialForward.fog[94].server[0] droppedJobsTotal 1245532
scalar FogSequentialForward.fog[95].dispatcher localJobs 1598103
scalar FogSequentialForward.fog[95].dispatcher internalJobs 1624743
scalar FogSequentialForward.fog[95].dispatcher externalJobs 3261048
scalar FogSequentialForward.fog[95].dispatcher remoteJobs 3262393
scalar FogSequentialForward.fog[95].dispatcher probeQueries 0
scalar FogSequentialForward.fog[95].dispatcher probeAnswers 0
scalar FogSequentialForward.fog[95].dispatcher droppedJobsSLA 25295
scalar FogSequentialForward.fog[95].dispatcher jobs_class_1 4885791
scalar FogSequentialForward.fog[95].dispatcher remoteJobs_class_1 3262393
scalar FogSequentialForward.fog[95].dispatcher localJobs_class_1 1598103
scalar FogSequentialForward.fog[95].dispatcher droppedJobsSLA_class_1 25295
scalar FogSequentialForward.fog[95].server[0] rho 0.99999988079071
scalar FogSequentialForward.fog[95].server[0] congestionRatio 0
scalar FogSequentialForward.fog[95].server[0] totalJobs 1598103
scalar FogSequentialForward.fog[95].server[0] droppedJobsQueue 168282
scalar FogSequentialForward.fog[95].server[0] droppedJobsTimout 0
scalar FogSequentialForward.fog[95].server[0] droppedJobsSLA 1075716
scalar FogSequentialForward.fog[95].server[0] droppedJobsTotal 1243998
scalar FogSequentialForward.fog[96].dispatcher localJobs 1597552
scalar FogSequentialForward.fog[96].dispatcher internalJobs 1622805
scalar FogSequentialForward.fog[96].dispatcher externalJobs 3258582
scalar FogSequentialForward.fog[96].dispatcher remoteJobs 3258634
scalar FogSequentialForward.fog[96].dispatcher probeQueries 0
scalar FogSequentialForward.fog[96].dispatcher probeAnswers 0
scalar FogSequentialForward.fog[96].dispatcher droppedJobsSLA 25201
scalar FogSequentialForward.fog[96].dispatcher jobs_class_1 4881387
scalar FogSequentialForward.fog[96].dispatcher remoteJobs_class_1 3258634
scalar FogSequentialForward.fog[96].dispatcher localJobs_class_1 1597552
scalar FogSequentialForward.fog[96].dispatcher droppedJobsSLA_class_1 25201
scalar FogSequentialForward.fog[96].server[0] rho 1
scalar FogSequentialForward.fog[96].server[0] congestionRatio 0
scalar FogSequentialForward.fog[96].server[0] totalJobs 1597552
scalar FogSequentialForward.fog[96].server[0] droppedJobsQueue 167936
scalar FogSequentialForward.fog[96].server[0] droppedJobsTimout 0
scalar FogSequentialForward.fog[96].server[0] droppedJobsSLA 1075777
scalar FogSequentialForward.fog[96].server[0] droppedJobsTotal 1243713
scalar FogSequentialForward.fog[97].dispatcher localJobs 1596773
scalar FogSequentialForward.fog[97].dispatcher internalJobs 1623187
scalar FogSequentialForward.fog[97].dispatcher externalJobs 3260411
scalar FogSequentialForward.fog[97].dispatcher remoteJobs 3261380
scalar FogSequentialForward.fog[97].dispatcher probeQueries 0
scalar FogSequentialForward.fog[97].dispatcher probeAnswers 0
scalar FogSequentialForward.fog[97].dispatcher droppedJobsSLA 25445
scalar FogSequentialForward.fog[97].dispatcher jobs_class_1 4883598
scalar FogSequentialForward.fog[97].dispatcher remoteJobs_class_1 3261380
scalar FogSequentialForward.fog[97].dispatcher localJobs_class_1 1596773
scalar FogSequentialForward.fog[97].dispatcher droppedJobsSLA_class_1 25445
scalar FogSequentialForward.fog[97].server[0] rho 1
scalar FogSequentialForward.fog[97].server[0] congestionRatio 0
scalar FogSequentialForward.fog[97].server[0] totalJobs 1596773
scalar FogSequentialForward.fog[97].server[0] droppedJobsQueue 167929
scalar FogSequentialForward.fog[97].server[0] droppedJobsTimout 0
scalar FogSequentialForward.fog[97].server[0] droppedJobsSLA 1075721
scalar FogSequentialForward.fog[97].server[0] droppedJobsTotal 1243650
scalar FogSequentialForward.fog[98].dispatcher localJobs 1597614
scalar FogSequentialForward.fog[98].dispatcher internalJobs 1621068
scalar FogSequentialForward.fog[98].dispatcher externalJobs 3261511
scalar FogSequentialForward.fog[98].dispatcher remoteJobs 3259626
scalar FogSequentialForward.fog[98].dispatcher probeQueries 0
scalar FogSequentialForward.fog[98].dispatcher probeAnswers 0
scalar FogSequentialForward.fog[98].dispatcher droppedJobsSLA 25339
scalar FogSequentialForward.fog[98].dispatcher jobs_class_1 4882579
scalar FogSequentialForward.fog[98].dispatcher remoteJobs_class_1 3259626
scalar FogSequentialForward.fog[98].dispatcher localJobs_class_1 1597614
scalar FogSequentialForward.fog[98].dispatcher droppedJobsSLA_class_1 25339
scalar FogSequentialForward.fog[98].server[0] rho 1
scalar FogSequentialForward.fog[98].server[0] congestionRatio 0
scalar FogSequentialForward.fog[98].server[0] totalJobs 1597614
scalar FogSequentialForward.fog[98].server[0] droppedJobsQueue 168125
scalar FogSequentialForward.fog[98].server[0] droppedJobsTimout 0
scalar FogSequentialForward.fog[98].server[0] droppedJobsSLA 1075864
scalar FogSequentialForward.fog[98].server[0] droppedJobsTotal 1243989
scalar FogSequentialForward.fog[99].dispatcher localJobs 1597649
scalar FogSequentialForward.fog[99].dispatcher internalJobs 1622332
scalar FogSequentialForward.fog[99].dispatcher externalJobs 3259671
scalar FogSequentialForward.fog[99].dispatcher remoteJobs 3258898
scalar FogSequentialForward.fog[99].dispatcher probeQueries 0
scalar FogSequentialForward.fog[99].dispatcher probeAnswers 0
scalar FogSequentialForward.fog[99].dispatcher droppedJobsSLA 25456
scalar FogSequentialForward.fog[99].dispatcher jobs_class_1 4882003
scalar FogSequentialForward.fog[99].dispatcher remoteJobs_class_1 3258898
scalar FogSequentialForward.fog[99].dispatcher localJobs_class_1 1597649
scalar FogSequentialForward.fog[99].dispatcher droppedJobsSLA_class_1 25456
scalar FogSequentialForward.fog[99].server[0] rho 1
scalar FogSequentialForward.fog[99].server[0] congestionRatio 0
scalar FogSequentialForward.fog[99].server[0] totalJobs 1597649
scalar FogSequentialForward.fog[99].server[0] droppedJobsQueue 167838
scalar FogSequentialForward.fog[99].server[0] droppedJobsTimout 0
scalar FogSequentialForward.fog[99].server[0] droppedJobsSLA 1075532
scalar FogSequentialForward.fog[99].server[0] droppedJobsTotal 1243370
scalar FogSequentialForward.sink avg_responseTime_1 0.15250201699115
scalar FogSequentialForward.sink p90_responseTime_1 0.016102420566
scalar FogSequentialForward.sink med_responseTime_1 0.016102420566
scalar FogSequentialForward.sink avg_delayTime_1 0
scalar FogSequentialForward.sink p90_delayTime_1 0
scalar FogSequentialForward.sink med_delayTime_1 0
scalar FogSequentialForward.sink avg_queuingTime_1 0.13051045309045
scalar FogSequentialForward.sink p90_queuingTime_1 0
scalar FogSequentialForward.sink med_queuingTime_1 0
scalar FogSequentialForward.sink avg_serviceTime_1 0.016754519117779
scalar FogSequentialForward.sink p90_serviceTime_1 0.014736742511
scalar FogSequentialForward.sink med_serviceTime_1 0.014736742511
scalar FogSequentialForward.sink avg_balancerTime_1 0.0052370447826765
scalar FogSequentialForward.sink p90_balancerTime_1 0
scalar FogSequentialForward.sink med_balancerTime_1 0
scalar FogSequentialForward.sink avg_balancerCount_1 1.3135954959838
scalar FogSequentialForward.sink p90_balancerCount_1 1
scalar FogSequentialForward.sink med_balancerCount_1 1

