version 2
run Fog-mul_001-rho_09-thr_15-3-20190713-23:11:23-80919
attr configname Fog-mul_001-rho_09-thr_15
attr datetime 20190713-23:11:23
attr experiment Fog-mul_001-rho_09-thr_15
attr inifile FogSequentialForward.ini
attr iterationvars ""
attr iterationvarsf ""
attr measurement ""
attr network FogSequentialForward
attr processid 80919
attr repetition 3
attr replication #3
attr resultdir results
attr runnumber 3
attr seedset 3
param FogSequentialForward.proctimeMul 0.01
param FogSequentialForward.rho 0.9
param FogSequentialForward.fog[*].dispatcher.thr 15
param FogSequentialForward.nSources 100
param FogSequentialForward.rho 0.9
param FogSequentialForward.proctimeMul 1.0
param FogSequentialForward.source[*].appId 1
param FogSequentialForward.source[*].realTime true
param FogSequentialForward.source[*].multiHop true
param FogSequentialForward.fog[*].nServers 1
param FogSequentialForward.fog[*].dispatcher.fanOut 1
param FogSequentialForward.fog[*].server[*].timeSlice -1s
param FogSequentialForward.fog[*].server[*].timeout -1s
param FogSequentialForward.fog[*].server[*].capacity 20
param FogSequentialForward.fog[*].server[*].fifo true
param FogSequentialForward.fog[*].server[*].maxServiceTime -1s
param FogSequentialForward.fog[*].dispatcher.thr 1

scalar FogSequentialForward.fog[0].dispatcher localJobs 1533920
scalar FogSequentialForward.fog[0].dispatcher internalJobs 1624252
scalar FogSequentialForward.fog[0].dispatcher externalJobs 4784068
scalar FogSequentialForward.fog[0].dispatcher remoteJobs 4786390
scalar FogSequentialForward.fog[0].dispatcher probeQueries 0
scalar FogSequentialForward.fog[0].dispatcher probeAnswers 0
scalar FogSequentialForward.fog[0].dispatcher droppedJobsSLA 88010
scalar FogSequentialForward.fog[0].dispatcher jobs_class_1 6408320
scalar FogSequentialForward.fog[0].dispatcher remoteJobs_class_1 4786390
scalar FogSequentialForward.fog[0].dispatcher localJobs_class_1 1533920
scalar FogSequentialForward.fog[0].dispatcher droppedJobsSLA_class_1 88010
scalar FogSequentialForward.fog[0].server[0] rho 1
scalar FogSequentialForward.fog[0].server[0] congestionRatio 0
scalar FogSequentialForward.fog[0].server[0] totalJobs 1533920
scalar FogSequentialForward.fog[0].server[0] droppedJobsQueue 96799
scalar FogSequentialForward.fog[0].server[0] droppedJobsTimout 0
scalar FogSequentialForward.fog[0].server[0] droppedJobsSLA 1021778
scalar FogSequentialForward.fog[0].server[0] droppedJobsTotal 1118577
scalar FogSequentialForward.fog[1].dispatcher localJobs 1534948
scalar FogSequentialForward.fog[1].dispatcher internalJobs 1622951
scalar FogSequentialForward.fog[1].dispatcher externalJobs 4789085
scalar FogSequentialForward.fog[1].dispatcher remoteJobs 4788620
scalar FogSequentialForward.fog[1].dispatcher probeQueries 0
scalar FogSequentialForward.fog[1].dispatcher probeAnswers 0
scalar FogSequentialForward.fog[1].dispatcher droppedJobsSLA 88468
scalar FogSequentialForward.fog[1].dispatcher jobs_class_1 6412036
scalar FogSequentialForward.fog[1].dispatcher remoteJobs_class_1 4788620
scalar FogSequentialForward.fog[1].dispatcher localJobs_class_1 1534948
scalar FogSequentialForward.fog[1].dispatcher droppedJobsSLA_class_1 88468
scalar FogSequentialForward.fog[1].server[0] rho 1
scalar FogSequentialForward.fog[1].server[0] congestionRatio 0
scalar FogSequentialForward.fog[1].server[0] totalJobs 1534948
scalar FogSequentialForward.fog[1].server[0] droppedJobsQueue 97069
scalar FogSequentialForward.fog[1].server[0] droppedJobsTimout 0
scalar FogSequentialForward.fog[1].server[0] droppedJobsSLA 1022334
scalar FogSequentialForward.fog[1].server[0] droppedJobsTotal 1119403
scalar FogSequentialForward.fog[2].dispatcher localJobs 1535074
scalar FogSequentialForward.fog[2].dispatcher internalJobs 1622933
scalar FogSequentialForward.fog[2].dispatcher externalJobs 4788571
scalar FogSequentialForward.fog[2].dispatcher remoteJobs 4788219
scalar FogSequentialForward.fog[2].dispatcher probeQueries 0
scalar FogSequentialForward.fog[2].dispatcher probeAnswers 0
scalar FogSequentialForward.fog[2].dispatcher droppedJobsSLA 88211
scalar FogSequentialForward.fog[2].dispatcher jobs_class_1 6411504
scalar FogSequentialForward.fog[2].dispatcher remoteJobs_class_1 4788219
scalar FogSequentialForward.fog[2].dispatcher localJobs_class_1 1535074
scalar FogSequentialForward.fog[2].dispatcher droppedJobsSLA_class_1 88211
scalar FogSequentialForward.fog[2].server[0] rho 1
scalar FogSequentialForward.fog[2].server[0] congestionRatio 0
scalar FogSequentialForward.fog[2].server[0] totalJobs 1535074
scalar FogSequentialForward.fog[2].server[0] droppedJobsQueue 96966
scalar FogSequentialForward.fog[2].server[0] droppedJobsTimout 0
scalar FogSequentialForward.fog[2].server[0] droppedJobsSLA 1021919
scalar FogSequentialForward.fog[2].server[0] droppedJobsTotal 1118885
scalar FogSequentialForward.fog[3].dispatcher localJobs 1535662
scalar FogSequentialForward.fog[3].dispatcher internalJobs 1623671
scalar FogSequentialForward.fog[3].dispatcher externalJobs 4787073
scalar FogSequentialForward.fog[3].dispatcher remoteJobs 4786724
scalar FogSequentialForward.fog[3].dispatcher probeQueries 0
scalar FogSequentialForward.fog[3].dispatcher probeAnswers 0
scalar FogSequentialForward.fog[3].dispatcher droppedJobsSLA 88358
scalar FogSequentialForward.fog[3].dispatcher jobs_class_1 6410744
scalar FogSequentialForward.fog[3].dispatcher remoteJobs_class_1 4786724
scalar FogSequentialForward.fog[3].dispatcher localJobs_class_1 1535662
scalar FogSequentialForward.fog[3].dispatcher droppedJobsSLA_class_1 88358
scalar FogSequentialForward.fog[3].server[0] rho 1
scalar FogSequentialForward.fog[3].server[0] congestionRatio 0
scalar FogSequentialForward.fog[3].server[0] totalJobs 1535662
scalar FogSequentialForward.fog[3].server[0] droppedJobsQueue 97146
scalar FogSequentialForward.fog[3].server[0] droppedJobsTimout 0
scalar FogSequentialForward.fog[3].server[0] droppedJobsSLA 1022662
scalar FogSequentialForward.fog[3].server[0] droppedJobsTotal 1119808
scalar FogSequentialForward.fog[4].dispatcher localJobs 1534445
scalar FogSequentialForward.fog[4].dispatcher internalJobs 1622713
scalar FogSequentialForward.fog[4].dispatcher externalJobs 4783475
scalar FogSequentialForward.fog[4].dispatcher remoteJobs 4784009
scalar FogSequentialForward.fog[4].dispatcher probeQueries 0
scalar FogSequentialForward.fog[4].dispatcher probeAnswers 0
scalar FogSequentialForward.fog[4].dispatcher droppedJobsSLA 87734
scalar FogSequentialForward.fog[4].dispatcher jobs_class_1 6406188
scalar FogSequentialForward.fog[4].dispatcher remoteJobs_class_1 4784009
scalar FogSequentialForward.fog[4].dispatcher localJobs_class_1 1534445
scalar FogSequentialForward.fog[4].dispatcher droppedJobsSLA_class_1 87734
scalar FogSequentialForward.fog[4].server[0] rho 1
scalar FogSequentialForward.fog[4].server[0] congestionRatio 0
scalar FogSequentialForward.fog[4].server[0] totalJobs 1534445
scalar FogSequentialForward.fog[4].server[0] droppedJobsQueue 97014
scalar FogSequentialForward.fog[4].server[0] droppedJobsTimout 0
scalar FogSequentialForward.fog[4].server[0] droppedJobsSLA 1021542
scalar FogSequentialForward.fog[4].server[0] droppedJobsTotal 1118556
scalar FogSequentialForward.fog[5].dispatcher localJobs 1534634
scalar FogSequentialForward.fog[5].dispatcher internalJobs 1625030
scalar FogSequentialForward.fog[5].dispatcher externalJobs 4793215
scalar FogSequentialForward.fog[5].dispatcher remoteJobs 4794661
scalar FogSequentialForward.fog[5].dispatcher probeQueries 0
scalar FogSequentialForward.fog[5].dispatcher probeAnswers 0
scalar FogSequentialForward.fog[5].dispatcher droppedJobsSLA 88950
scalar FogSequentialForward.fog[5].dispatcher jobs_class_1 6418245
scalar FogSequentialForward.fog[5].dispatcher remoteJobs_class_1 4794661
scalar FogSequentialForward.fog[5].dispatcher localJobs_class_1 1534634
scalar FogSequentialForward.fog[5].dispatcher droppedJobsSLA_class_1 88950
scalar FogSequentialForward.fog[5].server[0] rho 1
scalar FogSequentialForward.fog[5].server[0] congestionRatio 0
scalar FogSequentialForward.fog[5].server[0] totalJobs 1534634
scalar FogSequentialForward.fog[5].server[0] droppedJobsQueue 96916
scalar FogSequentialForward.fog[5].server[0] droppedJobsTimout 0
scalar FogSequentialForward.fog[5].server[0] droppedJobsSLA 1022246
scalar FogSequentialForward.fog[5].server[0] droppedJobsTotal 1119162
scalar FogSequentialForward.fog[6].dispatcher localJobs 1535454
scalar FogSequentialForward.fog[6].dispatcher internalJobs 1623744
scalar FogSequentialForward.fog[6].dispatcher externalJobs 4787027
scalar FogSequentialForward.fog[6].dispatcher remoteJobs 4786335
scalar FogSequentialForward.fog[6].dispatcher probeQueries 0
scalar FogSequentialForward.fog[6].dispatcher probeAnswers 0
scalar FogSequentialForward.fog[6].dispatcher droppedJobsSLA 88982
scalar FogSequentialForward.fog[6].dispatcher jobs_class_1 6410771
scalar FogSequentialForward.fog[6].dispatcher remoteJobs_class_1 4786335
scalar FogSequentialForward.fog[6].dispatcher localJobs_class_1 1535454
scalar FogSequentialForward.fog[6].dispatcher droppedJobsSLA_class_1 88982
scalar FogSequentialForward.fog[6].server[0] rho 1
scalar FogSequentialForward.fog[6].server[0] congestionRatio 0
scalar FogSequentialForward.fog[6].server[0] totalJobs 1535454
scalar FogSequentialForward.fog[6].server[0] droppedJobsQueue 96977
scalar FogSequentialForward.fog[6].server[0] droppedJobsTimout 0
scalar FogSequentialForward.fog[6].server[0] droppedJobsSLA 1022462
scalar FogSequentialForward.fog[6].server[0] droppedJobsTotal 1119439
scalar FogSequentialForward.fog[7].dispatcher localJobs 1534465
scalar FogSequentialForward.fog[7].dispatcher internalJobs 1621257
scalar FogSequentialForward.fog[7].dispatcher externalJobs 4784616
scalar FogSequentialForward.fog[7].dispatcher remoteJobs 4782930
scalar FogSequentialForward.fog[7].dispatcher probeQueries 0
scalar FogSequentialForward.fog[7].dispatcher probeAnswers 0
scalar FogSequentialForward.fog[7].dispatcher droppedJobsSLA 88478
scalar FogSequentialForward.fog[7].dispatcher jobs_class_1 6405873
scalar FogSequentialForward.fog[7].dispatcher remoteJobs_class_1 4782930
scalar FogSequentialForward.fog[7].dispatcher localJobs_class_1 1534465
scalar FogSequentialForward.fog[7].dispatcher droppedJobsSLA_class_1 88478
scalar FogSequentialForward.fog[7].server[0] rho 1
scalar FogSequentialForward.fog[7].server[0] congestionRatio 0
scalar FogSequentialForward.fog[7].server[0] totalJobs 1534465
scalar FogSequentialForward.fog[7].server[0] droppedJobsQueue 96964
scalar FogSequentialForward.fog[7].server[0] droppedJobsTimout 0
scalar FogSequentialForward.fog[7].server[0] droppedJobsSLA 1021081
scalar FogSequentialForward.fog[7].server[0] droppedJobsTotal 1118045
scalar FogSequentialForward.fog[8].dispatcher localJobs 1534517
scalar FogSequentialForward.fog[8].dispatcher internalJobs 1622870
scalar FogSequentialForward.fog[8].dispatcher externalJobs 4788605
scalar FogSequentialForward.fog[8].dispatcher remoteJobs 4788087
scalar FogSequentialForward.fog[8].dispatcher probeQueries 0
scalar FogSequentialForward.fog[8].dispatcher probeAnswers 0
scalar FogSequentialForward.fog[8].dispatcher droppedJobsSLA 88871
scalar FogSequentialForward.fog[8].dispatcher jobs_class_1 6411475
scalar FogSequentialForward.fog[8].dispatcher remoteJobs_class_1 4788087
scalar FogSequentialForward.fog[8].dispatcher localJobs_class_1 1534517
scalar FogSequentialForward.fog[8].dispatcher droppedJobsSLA_class_1 88871
scalar FogSequentialForward.fog[8].server[0] rho 1
scalar FogSequentialForward.fog[8].server[0] congestionRatio 0
scalar FogSequentialForward.fog[8].server[0] totalJobs 1534517
scalar FogSequentialForward.fog[8].server[0] droppedJobsQueue 96658
scalar FogSequentialForward.fog[8].server[0] droppedJobsTimout 0
scalar FogSequentialForward.fog[8].server[0] droppedJobsSLA 1021862
scalar FogSequentialForward.fog[8].server[0] droppedJobsTotal 1118520
scalar FogSequentialForward.fog[9].dispatcher localJobs 1535077
scalar FogSequentialForward.fog[9].dispatcher internalJobs 1623148
scalar FogSequentialForward.fog[9].dispatcher externalJobs 4787836
scalar FogSequentialForward.fog[9].dispatcher remoteJobs 4787644
scalar FogSequentialForward.fog[9].dispatcher probeQueries 0
scalar FogSequentialForward.fog[9].dispatcher probeAnswers 0
scalar FogSequentialForward.fog[9].dispatcher droppedJobsSLA 88263
scalar FogSequentialForward.fog[9].dispatcher jobs_class_1 6410984
scalar FogSequentialForward.fog[9].dispatcher remoteJobs_class_1 4787644
scalar FogSequentialForward.fog[9].dispatcher localJobs_class_1 1535077
scalar FogSequentialForward.fog[9].dispatcher droppedJobsSLA_class_1 88263
scalar FogSequentialForward.fog[9].server[0] rho 1
scalar FogSequentialForward.fog[9].server[0] congestionRatio 0
scalar FogSequentialForward.fog[9].server[0] totalJobs 1535077
scalar FogSequentialForward.fog[9].server[0] droppedJobsQueue 96936
scalar FogSequentialForward.fog[9].server[0] droppedJobsTimout 0
scalar FogSequentialForward.fog[9].server[0] droppedJobsSLA 1022051
scalar FogSequentialForward.fog[9].server[0] droppedJobsTotal 1118987
scalar FogSequentialForward.fog[10].dispatcher localJobs 1534954
scalar FogSequentialForward.fog[10].dispatcher internalJobs 1622782
scalar FogSequentialForward.fog[10].dispatcher externalJobs 4792759
scalar FogSequentialForward.fog[10].dispatcher remoteJobs 4792024
scalar FogSequentialForward.fog[10].dispatcher probeQueries 0
scalar FogSequentialForward.fog[10].dispatcher probeAnswers 0
scalar FogSequentialForward.fog[10].dispatcher droppedJobsSLA 88563
scalar FogSequentialForward.fog[10].dispatcher jobs_class_1 6415541
scalar FogSequentialForward.fog[10].dispatcher remoteJobs_class_1 4792024
scalar FogSequentialForward.fog[10].dispatcher localJobs_class_1 1534954
scalar FogSequentialForward.fog[10].dispatcher droppedJobsSLA_class_1 88563
scalar FogSequentialForward.fog[10].server[0] rho 1
scalar FogSequentialForward.fog[10].server[0] congestionRatio 0
scalar FogSequentialForward.fog[10].server[0] totalJobs 1534954
scalar FogSequentialForward.fog[10].server[0] droppedJobsQueue 96832
scalar FogSequentialForward.fog[10].server[0] droppedJobsTimout 0
scalar FogSequentialForward.fog[10].server[0] droppedJobsSLA 1022256
scalar FogSequentialForward.fog[10].server[0] droppedJobsTotal 1119088
scalar FogSequentialForward.fog[11].dispatcher localJobs 1535202
scalar FogSequentialForward.fog[11].dispatcher internalJobs 1621299
scalar FogSequentialForward.fog[11].dispatcher externalJobs 4787317
scalar FogSequentialForward.fog[11].dispatcher remoteJobs 4785133
scalar FogSequentialForward.fog[11].dispatcher probeQueries 0
scalar FogSequentialForward.fog[11].dispatcher probeAnswers 0
scalar FogSequentialForward.fog[11].dispatcher droppedJobsSLA 88281
scalar FogSequentialForward.fog[11].dispatcher jobs_class_1 6408616
scalar FogSequentialForward.fog[11].dispatcher remoteJobs_class_1 4785133
scalar FogSequentialForward.fog[11].dispatcher localJobs_class_1 1535202
scalar FogSequentialForward.fog[11].dispatcher droppedJobsSLA_class_1 88281
scalar FogSequentialForward.fog[11].server[0] rho 0.99999922513962
scalar FogSequentialForward.fog[11].server[0] congestionRatio 0
scalar FogSequentialForward.fog[11].server[0] totalJobs 1535202
scalar FogSequentialForward.fog[11].server[0] droppedJobsQueue 97080
scalar FogSequentialForward.fog[11].server[0] droppedJobsTimout 0
scalar FogSequentialForward.fog[11].server[0] droppedJobsSLA 1022152
scalar FogSequentialForward.fog[11].server[0] droppedJobsTotal 1119232
scalar FogSequentialForward.fog[12].dispatcher localJobs 1533449
scalar FogSequentialForward.fog[12].dispatcher internalJobs 1625847
scalar FogSequentialForward.fog[12].dispatcher externalJobs 4783970
scalar FogSequentialForward.fog[12].dispatcher remoteJobs 4787605
scalar FogSequentialForward.fog[12].dispatcher probeQueries 0
scalar FogSequentialForward.fog[12].dispatcher probeAnswers 0
scalar FogSequentialForward.fog[12].dispatcher droppedJobsSLA 88763
scalar FogSequentialForward.fog[12].dispatcher jobs_class_1 6409817
scalar FogSequentialForward.fog[12].dispatcher remoteJobs_class_1 4787605
scalar FogSequentialForward.fog[12].dispatcher localJobs_class_1 1533449
scalar FogSequentialForward.fog[12].dispatcher droppedJobsSLA_class_1 88763
scalar FogSequentialForward.fog[12].server[0] rho 1
scalar FogSequentialForward.fog[12].server[0] congestionRatio 0
scalar FogSequentialForward.fog[12].server[0] totalJobs 1533449
scalar FogSequentialForward.fog[12].server[0] droppedJobsQueue 96636
scalar FogSequentialForward.fog[12].server[0] droppedJobsTimout 0
scalar FogSequentialForward.fog[12].server[0] droppedJobsSLA 1021633
scalar FogSequentialForward.fog[12].server[0] droppedJobsTotal 1118269
scalar FogSequentialForward.fog[13].dispatcher localJobs 1535273
scalar FogSequentialForward.fog[13].dispatcher internalJobs 1623318
scalar FogSequentialForward.fog[13].dispatcher externalJobs 4788467
scalar FogSequentialForward.fog[13].dispatcher remoteJobs 4787614
scalar FogSequentialForward.fog[13].dispatcher probeQueries 0
scalar FogSequentialForward.fog[13].dispatcher probeAnswers 0
scalar FogSequentialForward.fog[13].dispatcher droppedJobsSLA 88898
scalar FogSequentialForward.fog[13].dispatcher jobs_class_1 6411785
scalar FogSequentialForward.fog[13].dispatcher remoteJobs_class_1 4787614
scalar FogSequentialForward.fog[13].dispatcher localJobs_class_1 1535273
scalar FogSequentialForward.fog[13].dispatcher droppedJobsSLA_class_1 88898
scalar FogSequentialForward.fog[13].server[0] rho 1
scalar FogSequentialForward.fog[13].server[0] congestionRatio 0
scalar FogSequentialForward.fog[13].server[0] totalJobs 1535273
scalar FogSequentialForward.fog[13].server[0] droppedJobsQueue 97251
scalar FogSequentialForward.fog[13].server[0] droppedJobsTimout 0
scalar FogSequentialForward.fog[13].server[0] droppedJobsSLA 1022838
scalar FogSequentialForward.fog[13].server[0] droppedJobsTotal 1120089
scalar FogSequentialForward.fog[14].dispatcher localJobs 1534804
scalar FogSequentialForward.fog[14].dispatcher internalJobs 1623250
scalar FogSequentialForward.fog[14].dispatcher externalJobs 4787482
scalar FogSequentialForward.fog[14].dispatcher remoteJobs 4787693
scalar FogSequentialForward.fog[14].dispatcher probeQueries 0
scalar FogSequentialForward.fog[14].dispatcher probeAnswers 0
scalar FogSequentialForward.fog[14].dispatcher droppedJobsSLA 88235
scalar FogSequentialForward.fog[14].dispatcher jobs_class_1 6410732
scalar FogSequentialForward.fog[14].dispatcher remoteJobs_class_1 4787693
scalar FogSequentialForward.fog[14].dispatcher localJobs_class_1 1534804
scalar FogSequentialForward.fog[14].dispatcher droppedJobsSLA_class_1 88235
scalar FogSequentialForward.fog[14].server[0] rho 1
scalar FogSequentialForward.fog[14].server[0] congestionRatio 0
scalar FogSequentialForward.fog[14].server[0] totalJobs 1534804
scalar FogSequentialForward.fog[14].server[0] droppedJobsQueue 96981
scalar FogSequentialForward.fog[14].server[0] droppedJobsTimout 0
scalar FogSequentialForward.fog[14].server[0] droppedJobsSLA 1021515
scalar FogSequentialForward.fog[14].server[0] droppedJobsTotal 1118496
scalar FogSequentialForward.fog[15].dispatcher localJobs 1534955
scalar FogSequentialForward.fog[15].dispatcher internalJobs 1624363
scalar FogSequentialForward.fog[15].dispatcher externalJobs 4788959
scalar FogSequentialForward.fog[15].dispatcher remoteJobs 4789251
scalar FogSequentialForward.fog[15].dispatcher probeQueries 0
scalar FogSequentialForward.fog[15].dispatcher probeAnswers 0
scalar FogSequentialForward.fog[15].dispatcher droppedJobsSLA 89116
scalar FogSequentialForward.fog[15].dispatcher jobs_class_1 6413322
scalar FogSequentialForward.fog[15].dispatcher remoteJobs_class_1 4789251
scalar FogSequentialForward.fog[15].dispatcher localJobs_class_1 1534955
scalar FogSequentialForward.fog[15].dispatcher droppedJobsSLA_class_1 89116
scalar FogSequentialForward.fog[15].server[0] rho 1
scalar FogSequentialForward.fog[15].server[0] congestionRatio 0
scalar FogSequentialForward.fog[15].server[0] totalJobs 1534955
scalar FogSequentialForward.fog[15].server[0] droppedJobsQueue 97030
scalar FogSequentialForward.fog[15].server[0] droppedJobsTimout 0
scalar FogSequentialForward.fog[15].server[0] droppedJobsSLA 1022387
scalar FogSequentialForward.fog[15].server[0] droppedJobsTotal 1119417
scalar FogSequentialForward.fog[16].dispatcher localJobs 1534275
scalar FogSequentialForward.fog[16].dispatcher internalJobs 1623607
scalar FogSequentialForward.fog[16].dispatcher externalJobs 4786657
scalar FogSequentialForward.fog[16].dispatcher remoteJobs 4787758
scalar FogSequentialForward.fog[16].dispatcher probeQueries 0
scalar FogSequentialForward.fog[16].dispatcher probeAnswers 0
scalar FogSequentialForward.fog[16].dispatcher droppedJobsSLA 88231
scalar FogSequentialForward.fog[16].dispatcher jobs_class_1 6410264
scalar FogSequentialForward.fog[16].dispatcher remoteJobs_class_1 4787758
scalar FogSequentialForward.fog[16].dispatcher localJobs_class_1 1534275
scalar FogSequentialForward.fog[16].dispatcher droppedJobsSLA_class_1 88231
scalar FogSequentialForward.fog[16].server[0] rho 1
scalar FogSequentialForward.fog[16].server[0] congestionRatio 0
scalar FogSequentialForward.fog[16].server[0] totalJobs 1534275
scalar FogSequentialForward.fog[16].server[0] droppedJobsQueue 96706
scalar FogSequentialForward.fog[16].server[0] droppedJobsTimout 0
scalar FogSequentialForward.fog[16].server[0] droppedJobsSLA 1021798
scalar FogSequentialForward.fog[16].server[0] droppedJobsTotal 1118504
scalar FogSequentialForward.fog[17].dispatcher localJobs 1535205
scalar FogSequentialForward.fog[17].dispatcher internalJobs 1624381
scalar FogSequentialForward.fog[17].dispatcher externalJobs 4787627
scalar FogSequentialForward.fog[17].dispatcher remoteJobs 4788654
scalar FogSequentialForward.fog[17].dispatcher probeQueries 0
scalar FogSequentialForward.fog[17].dispatcher probeAnswers 0
scalar FogSequentialForward.fog[17].dispatcher droppedJobsSLA 88149
scalar FogSequentialForward.fog[17].dispatcher jobs_class_1 6412008
scalar FogSequentialForward.fog[17].dispatcher remoteJobs_class_1 4788654
scalar FogSequentialForward.fog[17].dispatcher localJobs_class_1 1535205
scalar FogSequentialForward.fog[17].dispatcher droppedJobsSLA_class_1 88149
scalar FogSequentialForward.fog[17].server[0] rho 1
scalar FogSequentialForward.fog[17].server[0] congestionRatio 0
scalar FogSequentialForward.fog[17].server[0] totalJobs 1535205
scalar FogSequentialForward.fog[17].server[0] droppedJobsQueue 97241
scalar FogSequentialForward.fog[17].server[0] droppedJobsTimout 0
scalar FogSequentialForward.fog[17].server[0] droppedJobsSLA 1022629
scalar FogSequentialForward.fog[17].server[0] droppedJobsTotal 1119870
scalar FogSequentialForward.fog[18].dispatcher localJobs 1534399
scalar FogSequentialForward.fog[18].dispatcher internalJobs 1625252
scalar FogSequentialForward.fog[18].dispatcher externalJobs 4789160
scalar FogSequentialForward.fog[18].dispatcher remoteJobs 4791117
scalar FogSequentialForward.fog[18].dispatcher probeQueries 0
scalar FogSequentialForward.fog[18].dispatcher probeAnswers 0
scalar FogSequentialForward.fog[18].dispatcher droppedJobsSLA 88896
scalar FogSequentialForward.fog[18].dispatcher jobs_class_1 6414412
scalar FogSequentialForward.fog[18].dispatcher remoteJobs_class_1 4791117
scalar FogSequentialForward.fog[18].dispatcher localJobs_class_1 1534399
scalar FogSequentialForward.fog[18].dispatcher droppedJobsSLA_class_1 88896
scalar FogSequentialForward.fog[18].server[0] rho 1
scalar FogSequentialForward.fog[18].server[0] congestionRatio 0
scalar FogSequentialForward.fog[18].server[0] totalJobs 1534399
scalar FogSequentialForward.fog[18].server[0] droppedJobsQueue 97068
scalar FogSequentialForward.fog[18].server[0] droppedJobsTimout 0
scalar FogSequentialForward.fog[18].server[0] droppedJobsSLA 1021131
scalar FogSequentialForward.fog[18].server[0] droppedJobsTotal 1118199
scalar FogSequentialForward.fog[19].dispatcher localJobs 1534710
scalar FogSequentialForward.fog[19].dispatcher internalJobs 1623618
scalar FogSequentialForward.fog[19].dispatcher externalJobs 4787041
scalar FogSequentialForward.fog[19].dispatcher remoteJobs 4787473
scalar FogSequentialForward.fog[19].dispatcher probeQueries 0
scalar FogSequentialForward.fog[19].dispatcher probeAnswers 0
scalar FogSequentialForward.fog[19].dispatcher droppedJobsSLA 88476
scalar FogSequentialForward.fog[19].dispatcher jobs_class_1 6410659
scalar FogSequentialForward.fog[19].dispatcher remoteJobs_class_1 4787473
scalar FogSequentialForward.fog[19].dispatcher localJobs_class_1 1534710
scalar FogSequentialForward.fog[19].dispatcher droppedJobsSLA_class_1 88476
scalar FogSequentialForward.fog[19].server[0] rho 1
scalar FogSequentialForward.fog[19].server[0] congestionRatio 0
scalar FogSequentialForward.fog[19].server[0] totalJobs 1534710
scalar FogSequentialForward.fog[19].server[0] droppedJobsQueue 96872
scalar FogSequentialForward.fog[19].server[0] droppedJobsTimout 0
scalar FogSequentialForward.fog[19].server[0] droppedJobsSLA 1022239
scalar FogSequentialForward.fog[19].server[0] droppedJobsTotal 1119111
scalar FogSequentialForward.fog[20].dispatcher localJobs 1533529
scalar FogSequentialForward.fog[20].dispatcher internalJobs 1621638
scalar FogSequentialForward.fog[20].dispatcher externalJobs 4784066
scalar FogSequentialForward.fog[20].dispatcher remoteJobs 4784197
scalar FogSequentialForward.fog[20].dispatcher probeQueries 0
scalar FogSequentialForward.fog[20].dispatcher probeAnswers 0
scalar FogSequentialForward.fog[20].dispatcher droppedJobsSLA 87978
scalar FogSequentialForward.fog[20].dispatcher jobs_class_1 6405704
scalar FogSequentialForward.fog[20].dispatcher remoteJobs_class_1 4784197
scalar FogSequentialForward.fog[20].dispatcher localJobs_class_1 1533529
scalar FogSequentialForward.fog[20].dispatcher droppedJobsSLA_class_1 87978
scalar FogSequentialForward.fog[20].server[0] rho 1
scalar FogSequentialForward.fog[20].server[0] congestionRatio 0
scalar FogSequentialForward.fog[20].server[0] totalJobs 1533529
scalar FogSequentialForward.fog[20].server[0] droppedJobsQueue 96710
scalar FogSequentialForward.fog[20].server[0] droppedJobsTimout 0
scalar FogSequentialForward.fog[20].server[0] droppedJobsSLA 1021524
scalar FogSequentialForward.fog[20].server[0] droppedJobsTotal 1118234
scalar FogSequentialForward.fog[21].dispatcher localJobs 1533945
scalar FogSequentialForward.fog[21].dispatcher internalJobs 1624903
scalar FogSequentialForward.fog[21].dispatcher externalJobs 4787449
scalar FogSequentialForward.fog[21].dispatcher remoteJobs 4789249
scalar FogSequentialForward.fog[21].dispatcher probeQueries 0
scalar FogSequentialForward.fog[21].dispatcher probeAnswers 0
scalar FogSequentialForward.fog[21].dispatcher droppedJobsSLA 89158
scalar FogSequentialForward.fog[21].dispatcher jobs_class_1 6412352
scalar FogSequentialForward.fog[21].dispatcher remoteJobs_class_1 4789249
scalar FogSequentialForward.fog[21].dispatcher localJobs_class_1 1533945
scalar FogSequentialForward.fog[21].dispatcher droppedJobsSLA_class_1 89158
scalar FogSequentialForward.fog[21].server[0] rho 1
scalar FogSequentialForward.fog[21].server[0] congestionRatio 0
scalar FogSequentialForward.fog[21].server[0] totalJobs 1533945
scalar FogSequentialForward.fog[21].server[0] droppedJobsQueue 96772
scalar FogSequentialForward.fog[21].server[0] droppedJobsTimout 0
scalar FogSequentialForward.fog[21].server[0] droppedJobsSLA 1021471
scalar FogSequentialForward.fog[21].server[0] droppedJobsTotal 1118243
scalar FogSequentialForward.fog[22].dispatcher localJobs 1534940
scalar FogSequentialForward.fog[22].dispatcher internalJobs 1627306
scalar FogSequentialForward.fog[22].dispatcher externalJobs 4791998
scalar FogSequentialForward.fog[22].dispatcher remoteJobs 4795059
scalar FogSequentialForward.fog[22].dispatcher probeQueries 0
scalar FogSequentialForward.fog[22].dispatcher probeAnswers 0
scalar FogSequentialForward.fog[22].dispatcher droppedJobsSLA 89305
scalar FogSequentialForward.fog[22].dispatcher jobs_class_1 6419304
scalar FogSequentialForward.fog[22].dispatcher remoteJobs_class_1 4795059
scalar FogSequentialForward.fog[22].dispatcher localJobs_class_1 1534940
scalar FogSequentialForward.fog[22].dispatcher droppedJobsSLA_class_1 89305
scalar FogSequentialForward.fog[22].server[0] rho 1
scalar FogSequentialForward.fog[22].server[0] congestionRatio 0
scalar FogSequentialForward.fog[22].server[0] totalJobs 1534940
scalar FogSequentialForward.fog[22].server[0] droppedJobsQueue 97064
scalar FogSequentialForward.fog[22].server[0] droppedJobsTimout 0
scalar FogSequentialForward.fog[22].server[0] droppedJobsSLA 1022453
scalar FogSequentialForward.fog[22].server[0] droppedJobsTotal 1119517
scalar FogSequentialForward.fog[23].dispatcher localJobs 1534307
scalar FogSequentialForward.fog[23].dispatcher internalJobs 1621807
scalar FogSequentialForward.fog[23].dispatcher externalJobs 4786420
scalar FogSequentialForward.fog[23].dispatcher remoteJobs 4785102
scalar FogSequentialForward.fog[23].dispatcher probeQueries 0
scalar FogSequentialForward.fog[23].dispatcher probeAnswers 0
scalar FogSequentialForward.fog[23].dispatcher droppedJobsSLA 88818
scalar FogSequentialForward.fog[23].dispatcher jobs_class_1 6408227
scalar FogSequentialForward.fog[23].dispatcher remoteJobs_class_1 4785102
scalar FogSequentialForward.fog[23].dispatcher localJobs_class_1 1534307
scalar FogSequentialForward.fog[23].dispatcher droppedJobsSLA_class_1 88818
scalar FogSequentialForward.fog[23].server[0] rho 1
scalar FogSequentialForward.fog[23].server[0] congestionRatio 0
scalar FogSequentialForward.fog[23].server[0] totalJobs 1534307
scalar FogSequentialForward.fog[23].server[0] droppedJobsQueue 96699
scalar FogSequentialForward.fog[23].server[0] droppedJobsTimout 0
scalar FogSequentialForward.fog[23].server[0] droppedJobsSLA 1021826
scalar FogSequentialForward.fog[23].server[0] droppedJobsTotal 1118525
scalar FogSequentialForward.fog[24].dispatcher localJobs 1534611
scalar FogSequentialForward.fog[24].dispatcher internalJobs 1623773
scalar FogSequentialForward.fog[24].dispatcher externalJobs 4785882
scalar FogSequentialForward.fog[24].dispatcher remoteJobs 4786206
scalar FogSequentialForward.fog[24].dispatcher probeQueries 0
scalar FogSequentialForward.fog[24].dispatcher probeAnswers 0
scalar FogSequentialForward.fog[24].dispatcher droppedJobsSLA 88838
scalar FogSequentialForward.fog[24].dispatcher jobs_class_1 6409655
scalar FogSequentialForward.fog[24].dispatcher remoteJobs_class_1 4786206
scalar FogSequentialForward.fog[24].dispatcher localJobs_class_1 1534611
scalar FogSequentialForward.fog[24].dispatcher droppedJobsSLA_class_1 88838
scalar FogSequentialForward.fog[24].server[0] rho 1
scalar FogSequentialForward.fog[24].server[0] congestionRatio 0
scalar FogSequentialForward.fog[24].server[0] totalJobs 1534611
scalar FogSequentialForward.fog[24].server[0] droppedJobsQueue 96889
scalar FogSequentialForward.fog[24].server[0] droppedJobsTimout 0
scalar FogSequentialForward.fog[24].server[0] droppedJobsSLA 1022166
scalar FogSequentialForward.fog[24].server[0] droppedJobsTotal 1119055
scalar FogSequentialForward.fog[25].dispatcher localJobs 1533630
scalar FogSequentialForward.fog[25].dispatcher internalJobs 1622566
scalar FogSequentialForward.fog[25].dispatcher externalJobs 4789138
scalar FogSequentialForward.fog[25].dispatcher remoteJobs 4789953
scalar FogSequentialForward.fog[25].dispatcher probeQueries 0
scalar FogSequentialForward.fog[25].dispatcher probeAnswers 0
scalar FogSequentialForward.fog[25].dispatcher droppedJobsSLA 88121
scalar FogSequentialForward.fog[25].dispatcher jobs_class_1 6411704
scalar FogSequentialForward.fog[25].dispatcher remoteJobs_class_1 4789953
scalar FogSequentialForward.fog[25].dispatcher localJobs_class_1 1533630
scalar FogSequentialForward.fog[25].dispatcher droppedJobsSLA_class_1 88121
scalar FogSequentialForward.fog[25].server[0] rho 1
scalar FogSequentialForward.fog[25].server[0] congestionRatio 0
scalar FogSequentialForward.fog[25].server[0] totalJobs 1533630
scalar FogSequentialForward.fog[25].server[0] droppedJobsQueue 96287
scalar FogSequentialForward.fog[25].server[0] droppedJobsTimout 0
scalar FogSequentialForward.fog[25].server[0] droppedJobsSLA 1021943
scalar FogSequentialForward.fog[25].server[0] droppedJobsTotal 1118230
scalar FogSequentialForward.fog[26].dispatcher localJobs 1534194
scalar FogSequentialForward.fog[26].dispatcher internalJobs 1622955
scalar FogSequentialForward.fog[26].dispatcher externalJobs 4787238
scalar FogSequentialForward.fog[26].dispatcher remoteJobs 4787202
scalar FogSequentialForward.fog[26].dispatcher probeQueries 0
scalar FogSequentialForward.fog[26].dispatcher probeAnswers 0
scalar FogSequentialForward.fog[26].dispatcher droppedJobsSLA 88797
scalar FogSequentialForward.fog[26].dispatcher jobs_class_1 6410193
scalar FogSequentialForward.fog[26].dispatcher remoteJobs_class_1 4787202
scalar FogSequentialForward.fog[26].dispatcher localJobs_class_1 1534194
scalar FogSequentialForward.fog[26].dispatcher droppedJobsSLA_class_1 88797
scalar FogSequentialForward.fog[26].server[0] rho 1
scalar FogSequentialForward.fog[26].server[0] congestionRatio 0
scalar FogSequentialForward.fog[26].server[0] totalJobs 1534194
scalar FogSequentialForward.fog[26].server[0] droppedJobsQueue 96647
scalar FogSequentialForward.fog[26].server[0] droppedJobsTimout 0
scalar FogSequentialForward.fog[26].server[0] droppedJobsSLA 1021669
scalar FogSequentialForward.fog[26].server[0] droppedJobsTotal 1118316
scalar FogSequentialForward.fog[27].dispatcher localJobs 1535020
scalar FogSequentialForward.fog[27].dispatcher internalJobs 1623800
scalar FogSequentialForward.fog[27].dispatcher externalJobs 4787596
scalar FogSequentialForward.fog[27].dispatcher remoteJobs 4787845
scalar FogSequentialForward.fog[27].dispatcher probeQueries 0
scalar FogSequentialForward.fog[27].dispatcher probeAnswers 0
scalar FogSequentialForward.fog[27].dispatcher droppedJobsSLA 88531
scalar FogSequentialForward.fog[27].dispatcher jobs_class_1 6411396
scalar FogSequentialForward.fog[27].dispatcher remoteJobs_class_1 4787845
scalar FogSequentialForward.fog[27].dispatcher localJobs_class_1 1535020
scalar FogSequentialForward.fog[27].dispatcher droppedJobsSLA_class_1 88531
scalar FogSequentialForward.fog[27].server[0] rho 1
scalar FogSequentialForward.fog[27].server[0] congestionRatio 0
scalar FogSequentialForward.fog[27].server[0] totalJobs 1535020
scalar FogSequentialForward.fog[27].server[0] droppedJobsQueue 97099
scalar FogSequentialForward.fog[27].server[0] droppedJobsTimout 0
scalar FogSequentialForward.fog[27].server[0] droppedJobsSLA 1021866
scalar FogSequentialForward.fog[27].server[0] droppedJobsTotal 1118965
scalar FogSequentialForward.fog[28].dispatcher localJobs 1534336
scalar FogSequentialForward.fog[28].dispatcher internalJobs 1625519
scalar FogSequentialForward.fog[28].dispatcher externalJobs 4786359
scalar FogSequentialForward.fog[28].dispatcher remoteJobs 4788789
scalar FogSequentialForward.fog[28].dispatcher probeQueries 0
scalar FogSequentialForward.fog[28].dispatcher probeAnswers 0
scalar FogSequentialForward.fog[28].dispatcher droppedJobsSLA 88753
scalar FogSequentialForward.fog[28].dispatcher jobs_class_1 6411878
scalar FogSequentialForward.fog[28].dispatcher remoteJobs_class_1 4788789
scalar FogSequentialForward.fog[28].dispatcher localJobs_class_1 1534336
scalar FogSequentialForward.fog[28].dispatcher droppedJobsSLA_class_1 88753
scalar FogSequentialForward.fog[28].server[0] rho 1
scalar FogSequentialForward.fog[28].server[0] congestionRatio 0
scalar FogSequentialForward.fog[28].server[0] totalJobs 1534336
scalar FogSequentialForward.fog[28].server[0] droppedJobsQueue 96873
scalar FogSequentialForward.fog[28].server[0] droppedJobsTimout 0
scalar FogSequentialForward.fog[28].server[0] droppedJobsSLA 1022035
scalar FogSequentialForward.fog[28].server[0] droppedJobsTotal 1118908
scalar FogSequentialForward.fog[29].dispatcher localJobs 1534190
scalar FogSequentialForward.fog[29].dispatcher internalJobs 1623730
scalar FogSequentialForward.fog[29].dispatcher externalJobs 4783429
scalar FogSequentialForward.fog[29].dispatcher remoteJobs 4784651
scalar FogSequentialForward.fog[29].dispatcher probeQueries 0
scalar FogSequentialForward.fog[29].dispatcher probeAnswers 0
scalar FogSequentialForward.fog[29].dispatcher droppedJobsSLA 88318
scalar FogSequentialForward.fog[29].dispatcher jobs_class_1 6407159
scalar FogSequentialForward.fog[29].dispatcher remoteJobs_class_1 4784651
scalar FogSequentialForward.fog[29].dispatcher localJobs_class_1 1534190
scalar FogSequentialForward.fog[29].dispatcher droppedJobsSLA_class_1 88318
scalar FogSequentialForward.fog[29].server[0] rho 1
scalar FogSequentialForward.fog[29].server[0] congestionRatio 0
scalar FogSequentialForward.fog[29].server[0] totalJobs 1534190
scalar FogSequentialForward.fog[29].server[0] droppedJobsQueue 96540
scalar FogSequentialForward.fog[29].server[0] droppedJobsTimout 0
scalar FogSequentialForward.fog[29].server[0] droppedJobsSLA 1021239
scalar FogSequentialForward.fog[29].server[0] droppedJobsTotal 1117779
scalar FogSequentialForward.fog[30].dispatcher localJobs 1534393
scalar FogSequentialForward.fog[30].dispatcher internalJobs 1621108
scalar FogSequentialForward.fog[30].dispatcher externalJobs 4786018
scalar FogSequentialForward.fog[30].dispatcher remoteJobs 4784450
scalar FogSequentialForward.fog[30].dispatcher probeQueries 0
scalar FogSequentialForward.fog[30].dispatcher probeAnswers 0
scalar FogSequentialForward.fog[30].dispatcher droppedJobsSLA 88283
scalar FogSequentialForward.fog[30].dispatcher jobs_class_1 6407126
scalar FogSequentialForward.fog[30].dispatcher remoteJobs_class_1 4784450
scalar FogSequentialForward.fog[30].dispatcher localJobs_class_1 1534393
scalar FogSequentialForward.fog[30].dispatcher droppedJobsSLA_class_1 88283
scalar FogSequentialForward.fog[30].server[0] rho 1
scalar FogSequentialForward.fog[30].server[0] congestionRatio 0
scalar FogSequentialForward.fog[30].server[0] totalJobs 1534393
scalar FogSequentialForward.fog[30].server[0] droppedJobsQueue 96804
scalar FogSequentialForward.fog[30].server[0] droppedJobsTimout 0
scalar FogSequentialForward.fog[30].server[0] droppedJobsSLA 1022529
scalar FogSequentialForward.fog[30].server[0] droppedJobsTotal 1119333
scalar FogSequentialForward.fog[31].dispatcher localJobs 1535347
scalar FogSequentialForward.fog[31].dispatcher internalJobs 1622034
scalar FogSequentialForward.fog[31].dispatcher externalJobs 4789458
scalar FogSequentialForward.fog[31].dispatcher remoteJobs 4787658
scalar FogSequentialForward.fog[31].dispatcher probeQueries 0
scalar FogSequentialForward.fog[31].dispatcher probeAnswers 0
scalar FogSequentialForward.fog[31].dispatcher droppedJobsSLA 88487
scalar FogSequentialForward.fog[31].dispatcher jobs_class_1 6411492
scalar FogSequentialForward.fog[31].dispatcher remoteJobs_class_1 4787658
scalar FogSequentialForward.fog[31].dispatcher localJobs_class_1 1535347
scalar FogSequentialForward.fog[31].dispatcher droppedJobsSLA_class_1 88487
scalar FogSequentialForward.fog[31].server[0] rho 1
scalar FogSequentialForward.fog[31].server[0] congestionRatio 0
scalar FogSequentialForward.fog[31].server[0] totalJobs 1535347
scalar FogSequentialForward.fog[31].server[0] droppedJobsQueue 97010
scalar FogSequentialForward.fog[31].server[0] droppedJobsTimout 0
scalar FogSequentialForward.fog[31].server[0] droppedJobsSLA 1022245
scalar FogSequentialForward.fog[31].server[0] droppedJobsTotal 1119255
scalar FogSequentialForward.fog[32].dispatcher localJobs 1534564
scalar FogSequentialForward.fog[32].dispatcher internalJobs 1622309
scalar FogSequentialForward.fog[32].dispatcher externalJobs 4789810
scalar FogSequentialForward.fog[32].dispatcher remoteJobs 4788854
scalar FogSequentialForward.fog[32].dispatcher probeQueries 0
scalar FogSequentialForward.fog[32].dispatcher probeAnswers 0
scalar FogSequentialForward.fog[32].dispatcher droppedJobsSLA 88701
scalar FogSequentialForward.fog[32].dispatcher jobs_class_1 6412119
scalar FogSequentialForward.fog[32].dispatcher remoteJobs_class_1 4788854
scalar FogSequentialForward.fog[32].dispatcher localJobs_class_1 1534564
scalar FogSequentialForward.fog[32].dispatcher droppedJobsSLA_class_1 88701
scalar FogSequentialForward.fog[32].server[0] rho 1
scalar FogSequentialForward.fog[32].server[0] congestionRatio 0
scalar FogSequentialForward.fog[32].server[0] totalJobs 1534564
scalar FogSequentialForward.fog[32].server[0] droppedJobsQueue 96658
scalar FogSequentialForward.fog[32].server[0] droppedJobsTimout 0
scalar FogSequentialForward.fog[32].server[0] droppedJobsSLA 1022404
scalar FogSequentialForward.fog[32].server[0] droppedJobsTotal 1119062
scalar FogSequentialForward.fog[33].dispatcher localJobs 1534236
scalar FogSequentialForward.fog[33].dispatcher internalJobs 1620949
scalar FogSequentialForward.fog[33].dispatcher externalJobs 4783922
scalar FogSequentialForward.fog[33].dispatcher remoteJobs 4782167
scalar FogSequentialForward.fog[33].dispatcher probeQueries 0
scalar FogSequentialForward.fog[33].dispatcher probeAnswers 0
scalar FogSequentialForward.fog[33].dispatcher droppedJobsSLA 88468
scalar FogSequentialForward.fog[33].dispatcher jobs_class_1 6404871
scalar FogSequentialForward.fog[33].dispatcher remoteJobs_class_1 4782167
scalar FogSequentialForward.fog[33].dispatcher localJobs_class_1 1534236
scalar FogSequentialForward.fog[33].dispatcher droppedJobsSLA_class_1 88468
scalar FogSequentialForward.fog[33].server[0] rho 1
scalar FogSequentialForward.fog[33].server[0] congestionRatio 0
scalar FogSequentialForward.fog[33].server[0] totalJobs 1534236
scalar FogSequentialForward.fog[33].server[0] droppedJobsQueue 96785
scalar FogSequentialForward.fog[33].server[0] droppedJobsTimout 0
scalar FogSequentialForward.fog[33].server[0] droppedJobsSLA 1022338
scalar FogSequentialForward.fog[33].server[0] droppedJobsTotal 1119123
scalar FogSequentialForward.fog[34].dispatcher localJobs 1534432
scalar FogSequentialForward.fog[34].dispatcher internalJobs 1626108
scalar FogSequentialForward.fog[34].dispatcher externalJobs 4784416
scalar FogSequentialForward.fog[34].dispatcher remoteJobs 4786946
scalar FogSequentialForward.fog[34].dispatcher probeQueries 0
scalar FogSequentialForward.fog[34].dispatcher probeAnswers 0
scalar FogSequentialForward.fog[34].dispatcher droppedJobsSLA 89146
scalar FogSequentialForward.fog[34].dispatcher jobs_class_1 6410524
scalar FogSequentialForward.fog[34].dispatcher remoteJobs_class_1 4786946
scalar FogSequentialForward.fog[34].dispatcher localJobs_class_1 1534432
scalar FogSequentialForward.fog[34].dispatcher droppedJobsSLA_class_1 89146
scalar FogSequentialForward.fog[34].server[0] rho 1
scalar FogSequentialForward.fog[34].server[0] congestionRatio 0
scalar FogSequentialForward.fog[34].server[0] totalJobs 1534432
scalar FogSequentialForward.fog[34].server[0] droppedJobsQueue 96903
scalar FogSequentialForward.fog[34].server[0] droppedJobsTimout 0
scalar FogSequentialForward.fog[34].server[0] droppedJobsSLA 1022241
scalar FogSequentialForward.fog[34].server[0] droppedJobsTotal 1119144
scalar FogSequentialForward.fog[35].dispatcher localJobs 1535320
scalar FogSequentialForward.fog[35].dispatcher internalJobs 1621518
scalar FogSequentialForward.fog[35].dispatcher externalJobs 4789427
scalar FogSequentialForward.fog[35].dispatcher remoteJobs 4787019
scalar FogSequentialForward.fog[35].dispatcher probeQueries 0
scalar FogSequentialForward.fog[35].dispatcher probeAnswers 0
scalar FogSequentialForward.fog[35].dispatcher droppedJobsSLA 88606
scalar FogSequentialForward.fog[35].dispatcher jobs_class_1 6410945
scalar FogSequentialForward.fog[35].dispatcher remoteJobs_class_1 4787019
scalar FogSequentialForward.fog[35].dispatcher localJobs_class_1 1535320
scalar FogSequentialForward.fog[35].dispatcher droppedJobsSLA_class_1 88606
scalar FogSequentialForward.fog[35].server[0] rho 1
scalar FogSequentialForward.fog[35].server[0] congestionRatio 0
scalar FogSequentialForward.fog[35].server[0] totalJobs 1535320
scalar FogSequentialForward.fog[35].server[0] droppedJobsQueue 97176
scalar FogSequentialForward.fog[35].server[0] droppedJobsTimout 0
scalar FogSequentialForward.fog[35].server[0] droppedJobsSLA 1022292
scalar FogSequentialForward.fog[35].server[0] droppedJobsTotal 1119468
scalar FogSequentialForward.fog[36].dispatcher localJobs 1534096
scalar FogSequentialForward.fog[36].dispatcher internalJobs 1621864
scalar FogSequentialForward.fog[36].dispatcher externalJobs 4784678
scalar FogSequentialForward.fog[36].dispatcher remoteJobs 4783796
scalar FogSequentialForward.fog[36].dispatcher probeQueries 0
scalar FogSequentialForward.fog[36].dispatcher probeAnswers 0
scalar FogSequentialForward.fog[36].dispatcher droppedJobsSLA 88650
scalar FogSequentialForward.fog[36].dispatcher jobs_class_1 6406542
scalar FogSequentialForward.fog[36].dispatcher remoteJobs_class_1 4783796
scalar FogSequentialForward.fog[36].dispatcher localJobs_class_1 1534096
scalar FogSequentialForward.fog[36].dispatcher droppedJobsSLA_class_1 88650
scalar FogSequentialForward.fog[36].server[0] rho 1
scalar FogSequentialForward.fog[36].server[0] congestionRatio 0
scalar FogSequentialForward.fog[36].server[0] totalJobs 1534096
scalar FogSequentialForward.fog[36].server[0] droppedJobsQueue 96860
scalar FogSequentialForward.fog[36].server[0] droppedJobsTimout 0
scalar FogSequentialForward.fog[36].server[0] droppedJobsSLA 1021473
scalar FogSequentialForward.fog[36].server[0] droppedJobsTotal 1118333
scalar FogSequentialForward.fog[37].dispatcher localJobs 1534496
scalar FogSequentialForward.fog[37].dispatcher internalJobs 1620392
scalar FogSequentialForward.fog[37].dispatcher externalJobs 4788305
scalar FogSequentialForward.fog[37].dispatcher remoteJobs 4785171
scalar FogSequentialForward.fog[37].dispatcher probeQueries 0
scalar FogSequentialForward.fog[37].dispatcher probeAnswers 0
scalar FogSequentialForward.fog[37].dispatcher droppedJobsSLA 89030
scalar FogSequentialForward.fog[37].dispatcher jobs_class_1 6408697
scalar FogSequentialForward.fog[37].dispatcher remoteJobs_class_1 4785171
scalar FogSequentialForward.fog[37].dispatcher localJobs_class_1 1534496
scalar FogSequentialForward.fog[37].dispatcher droppedJobsSLA_class_1 89030
scalar FogSequentialForward.fog[37].server[0] rho 1
scalar FogSequentialForward.fog[37].server[0] congestionRatio 0
scalar FogSequentialForward.fog[37].server[0] totalJobs 1534496
scalar FogSequentialForward.fog[37].server[0] droppedJobsQueue 97030
scalar FogSequentialForward.fog[37].server[0] droppedJobsTimout 0
scalar FogSequentialForward.fog[37].server[0] droppedJobsSLA 1022058
scalar FogSequentialForward.fog[37].server[0] droppedJobsTotal 1119088
scalar FogSequentialForward.fog[38].dispatcher localJobs 1534521
scalar FogSequentialForward.fog[38].dispatcher internalJobs 1623618
scalar FogSequentialForward.fog[38].dispatcher externalJobs 4784804
scalar FogSequentialForward.fog[38].dispatcher remoteJobs 4785848
scalar FogSequentialForward.fog[38].dispatcher probeQueries 0
scalar FogSequentialForward.fog[38].dispatcher probeAnswers 0
scalar FogSequentialForward.fog[38].dispatcher droppedJobsSLA 88053
scalar FogSequentialForward.fog[38].dispatcher jobs_class_1 6408422
scalar FogSequentialForward.fog[38].dispatcher remoteJobs_class_1 4785848
scalar FogSequentialForward.fog[38].dispatcher localJobs_class_1 1534521
scalar FogSequentialForward.fog[38].dispatcher droppedJobsSLA_class_1 88053
scalar FogSequentialForward.fog[38].server[0] rho 1
scalar FogSequentialForward.fog[38].server[0] congestionRatio 0
scalar FogSequentialForward.fog[38].server[0] totalJobs 1534521
scalar FogSequentialForward.fog[38].server[0] droppedJobsQueue 96810
scalar FogSequentialForward.fog[38].server[0] droppedJobsTimout 0
scalar FogSequentialForward.fog[38].server[0] droppedJobsSLA 1022814
scalar FogSequentialForward.fog[38].server[0] droppedJobsTotal 1119624
scalar FogSequentialForward.fog[39].dispatcher localJobs 1534901
scalar FogSequentialForward.fog[39].dispatcher internalJobs 1624661
scalar FogSequentialForward.fog[39].dispatcher externalJobs 4786806
scalar FogSequentialForward.fog[39].dispatcher remoteJobs 4788173
scalar FogSequentialForward.fog[39].dispatcher probeQueries 0
scalar FogSequentialForward.fog[39].dispatcher probeAnswers 0
scalar FogSequentialForward.fog[39].dispatcher droppedJobsSLA 88393
scalar FogSequentialForward.fog[39].dispatcher jobs_class_1 6411467
scalar FogSequentialForward.fog[39].dispatcher remoteJobs_class_1 4788173
scalar FogSequentialForward.fog[39].dispatcher localJobs_class_1 1534901
scalar FogSequentialForward.fog[39].dispatcher droppedJobsSLA_class_1 88393
scalar FogSequentialForward.fog[39].server[0] rho 1
scalar FogSequentialForward.fog[39].server[0] congestionRatio 0
scalar FogSequentialForward.fog[39].server[0] totalJobs 1534901
scalar FogSequentialForward.fog[39].server[0] droppedJobsQueue 96842
scalar FogSequentialForward.fog[39].server[0] droppedJobsTimout 0
scalar FogSequentialForward.fog[39].server[0] droppedJobsSLA 1022819
scalar FogSequentialForward.fog[39].server[0] droppedJobsTotal 1119661
scalar FogSequentialForward.fog[40].dispatcher localJobs 1534094
scalar FogSequentialForward.fog[40].dispatcher internalJobs 1624297
scalar FogSequentialForward.fog[40].dispatcher externalJobs 4786348
scalar FogSequentialForward.fog[40].dispatcher remoteJobs 4787117
scalar FogSequentialForward.fog[40].dispatcher probeQueries 0
scalar FogSequentialForward.fog[40].dispatcher probeAnswers 0
scalar FogSequentialForward.fog[40].dispatcher droppedJobsSLA 89434
scalar FogSequentialForward.fog[40].dispatcher jobs_class_1 6410645
scalar FogSequentialForward.fog[40].dispatcher remoteJobs_class_1 4787117
scalar FogSequentialForward.fog[40].dispatcher localJobs_class_1 1534094
scalar FogSequentialForward.fog[40].dispatcher droppedJobsSLA_class_1 89434
scalar FogSequentialForward.fog[40].server[0] rho 1
scalar FogSequentialForward.fog[40].server[0] congestionRatio 0
scalar FogSequentialForward.fog[40].server[0] totalJobs 1534094
scalar FogSequentialForward.fog[40].server[0] droppedJobsQueue 96787
scalar FogSequentialForward.fog[40].server[0] droppedJobsTimout 0
scalar FogSequentialForward.fog[40].server[0] droppedJobsSLA 1021400
scalar FogSequentialForward.fog[40].server[0] droppedJobsTotal 1118187
scalar FogSequentialForward.fog[41].dispatcher localJobs 1535040
scalar FogSequentialForward.fog[41].dispatcher internalJobs 1624829
scalar FogSequentialForward.fog[41].dispatcher externalJobs 4787892
scalar FogSequentialForward.fog[41].dispatcher remoteJobs 4789086
scalar FogSequentialForward.fog[41].dispatcher probeQueries 0
scalar FogSequentialForward.fog[41].dispatcher probeAnswers 0
scalar FogSequentialForward.fog[41].dispatcher droppedJobsSLA 88595
scalar FogSequentialForward.fog[41].dispatcher jobs_class_1 6412721
scalar FogSequentialForward.fog[41].dispatcher remoteJobs_class_1 4789086
scalar FogSequentialForward.fog[41].dispatcher localJobs_class_1 1535040
scalar FogSequentialForward.fog[41].dispatcher droppedJobsSLA_class_1 88595
scalar FogSequentialForward.fog[41].server[0] rho 1
scalar FogSequentialForward.fog[41].server[0] congestionRatio 0
scalar FogSequentialForward.fog[41].server[0] totalJobs 1535040
scalar FogSequentialForward.fog[41].server[0] droppedJobsQueue 97116
scalar FogSequentialForward.fog[41].server[0] droppedJobsTimout 0
scalar FogSequentialForward.fog[41].server[0] droppedJobsSLA 1022218
scalar FogSequentialForward.fog[41].server[0] droppedJobsTotal 1119334
scalar FogSequentialForward.fog[42].dispatcher localJobs 1534547
scalar FogSequentialForward.fog[42].dispatcher internalJobs 1624932
scalar FogSequentialForward.fog[42].dispatcher externalJobs 4783906
scalar FogSequentialForward.fog[42].dispatcher remoteJobs 4785948
scalar FogSequentialForward.fog[42].dispatcher probeQueries 0
scalar FogSequentialForward.fog[42].dispatcher probeAnswers 0
scalar FogSequentialForward.fog[42].dispatcher droppedJobsSLA 88343
scalar FogSequentialForward.fog[42].dispatcher jobs_class_1 6408838
scalar FogSequentialForward.fog[42].dispatcher remoteJobs_class_1 4785948
scalar FogSequentialForward.fog[42].dispatcher localJobs_class_1 1534547
scalar FogSequentialForward.fog[42].dispatcher droppedJobsSLA_class_1 88343
scalar FogSequentialForward.fog[42].server[0] rho 1
scalar FogSequentialForward.fog[42].server[0] congestionRatio 0
scalar FogSequentialForward.fog[42].server[0] totalJobs 1534547
scalar FogSequentialForward.fog[42].server[0] droppedJobsQueue 97156
scalar FogSequentialForward.fog[42].server[0] droppedJobsTimout 0
scalar FogSequentialForward.fog[42].server[0] droppedJobsSLA 1021732
scalar FogSequentialForward.fog[42].server[0] droppedJobsTotal 1118888
scalar FogSequentialForward.fog[43].dispatcher localJobs 1534386
scalar FogSequentialForward.fog[43].dispatcher internalJobs 1623291
scalar FogSequentialForward.fog[43].dispatcher externalJobs 4783932
scalar FogSequentialForward.fog[43].dispatcher remoteJobs 4784685
scalar FogSequentialForward.fog[43].dispatcher probeQueries 0
scalar FogSequentialForward.fog[43].dispatcher probeAnswers 0
scalar FogSequentialForward.fog[43].dispatcher droppedJobsSLA 88152
scalar FogSequentialForward.fog[43].dispatcher jobs_class_1 6407223
scalar FogSequentialForward.fog[43].dispatcher remoteJobs_class_1 4784685
scalar FogSequentialForward.fog[43].dispatcher localJobs_class_1 1534386
scalar FogSequentialForward.fog[43].dispatcher droppedJobsSLA_class_1 88152
scalar FogSequentialForward.fog[43].server[0] rho 1
scalar FogSequentialForward.fog[43].server[0] congestionRatio 0
scalar FogSequentialForward.fog[43].server[0] totalJobs 1534386
scalar FogSequentialForward.fog[43].server[0] droppedJobsQueue 96441
scalar FogSequentialForward.fog[43].server[0] droppedJobsTimout 0
scalar FogSequentialForward.fog[43].server[0] droppedJobsSLA 1022257
scalar FogSequentialForward.fog[43].server[0] droppedJobsTotal 1118698
scalar FogSequentialForward.fog[44].dispatcher localJobs 1534802
scalar FogSequentialForward.fog[44].dispatcher internalJobs 1625471
scalar FogSequentialForward.fog[44].dispatcher externalJobs 4792355
scalar FogSequentialForward.fog[44].dispatcher remoteJobs 4794465
scalar FogSequentialForward.fog[44].dispatcher probeQueries 0
scalar FogSequentialForward.fog[44].dispatcher probeAnswers 0
scalar FogSequentialForward.fog[44].dispatcher droppedJobsSLA 88559
scalar FogSequentialForward.fog[44].dispatcher jobs_class_1 6417826
scalar FogSequentialForward.fog[44].dispatcher remoteJobs_class_1 4794465
scalar FogSequentialForward.fog[44].dispatcher localJobs_class_1 1534802
scalar FogSequentialForward.fog[44].dispatcher droppedJobsSLA_class_1 88559
scalar FogSequentialForward.fog[44].server[0] rho 1
scalar FogSequentialForward.fog[44].server[0] congestionRatio 0
scalar FogSequentialForward.fog[44].server[0] totalJobs 1534802
scalar FogSequentialForward.fog[44].server[0] droppedJobsQueue 97164
scalar FogSequentialForward.fog[44].server[0] droppedJobsTimout 0
scalar FogSequentialForward.fog[44].server[0] droppedJobsSLA 1022232
scalar FogSequentialForward.fog[44].server[0] droppedJobsTotal 1119396
scalar FogSequentialForward.fog[45].dispatcher localJobs 1535191
scalar FogSequentialForward.fog[45].dispatcher internalJobs 1623092
scalar FogSequentialForward.fog[45].dispatcher externalJobs 4786009
scalar FogSequentialForward.fog[45].dispatcher remoteJobs 4785796
scalar FogSequentialForward.fog[45].dispatcher probeQueries 0
scalar FogSequentialForward.fog[45].dispatcher probeAnswers 0
scalar FogSequentialForward.fog[45].dispatcher droppedJobsSLA 88114
scalar FogSequentialForward.fog[45].dispatcher jobs_class_1 6409101
scalar FogSequentialForward.fog[45].dispatcher remoteJobs_class_1 4785796
scalar FogSequentialForward.fog[45].dispatcher localJobs_class_1 1535191
scalar FogSequentialForward.fog[45].dispatcher droppedJobsSLA_class_1 88114
scalar FogSequentialForward.fog[45].server[0] rho 1
scalar FogSequentialForward.fog[45].server[0] congestionRatio 0
scalar FogSequentialForward.fog[45].server[0] totalJobs 1535191
scalar FogSequentialForward.fog[45].server[0] droppedJobsQueue 96664
scalar FogSequentialForward.fog[45].server[0] droppedJobsTimout 0
scalar FogSequentialForward.fog[45].server[0] droppedJobsSLA 1023037
scalar FogSequentialForward.fog[45].server[0] droppedJobsTotal 1119701
scalar FogSequentialForward.fog[46].dispatcher localJobs 1535475
scalar FogSequentialForward.fog[46].dispatcher internalJobs 1624241
scalar FogSequentialForward.fog[46].dispatcher externalJobs 4788858
scalar FogSequentialForward.fog[46].dispatcher remoteJobs 4789552
scalar FogSequentialForward.fog[46].dispatcher probeQueries 0
scalar FogSequentialForward.fog[46].dispatcher probeAnswers 0
scalar FogSequentialForward.fog[46].dispatcher droppedJobsSLA 88072
scalar FogSequentialForward.fog[46].dispatcher jobs_class_1 6413099
scalar FogSequentialForward.fog[46].dispatcher remoteJobs_class_1 4789552
scalar FogSequentialForward.fog[46].dispatcher localJobs_class_1 1535475
scalar FogSequentialForward.fog[46].dispatcher droppedJobsSLA_class_1 88072
scalar FogSequentialForward.fog[46].server[0] rho 1
scalar FogSequentialForward.fog[46].server[0] congestionRatio 0
scalar FogSequentialForward.fog[46].server[0] totalJobs 1535475
scalar FogSequentialForward.fog[46].server[0] droppedJobsQueue 96940
scalar FogSequentialForward.fog[46].server[0] droppedJobsTimout 0
scalar FogSequentialForward.fog[46].server[0] droppedJobsSLA 1022667
scalar FogSequentialForward.fog[46].server[0] droppedJobsTotal 1119607
scalar FogSequentialForward.fog[47].dispatcher localJobs 1534120
scalar FogSequentialForward.fog[47].dispatcher internalJobs 1623016
scalar FogSequentialForward.fog[47].dispatcher externalJobs 4787912
scalar FogSequentialForward.fog[47].dispatcher remoteJobs 4788228
scalar FogSequentialForward.fog[47].dispatcher probeQueries 0
scalar FogSequentialForward.fog[47].dispatcher probeAnswers 0
scalar FogSequentialForward.fog[47].dispatcher droppedJobsSLA 88580
scalar FogSequentialForward.fog[47].dispatcher jobs_class_1 6410928
scalar FogSequentialForward.fog[47].dispatcher remoteJobs_class_1 4788228
scalar FogSequentialForward.fog[47].dispatcher localJobs_class_1 1534120
scalar FogSequentialForward.fog[47].dispatcher droppedJobsSLA_class_1 88580
scalar FogSequentialForward.fog[47].server[0] rho 1
scalar FogSequentialForward.fog[47].server[0] congestionRatio 0
scalar FogSequentialForward.fog[47].server[0] totalJobs 1534120
scalar FogSequentialForward.fog[47].server[0] droppedJobsQueue 96637
scalar FogSequentialForward.fog[47].server[0] droppedJobsTimout 0
scalar FogSequentialForward.fog[47].server[0] droppedJobsSLA 1021524
scalar FogSequentialForward.fog[47].server[0] droppedJobsTotal 1118161
scalar FogSequentialForward.fog[48].dispatcher localJobs 1533408
scalar FogSequentialForward.fog[48].dispatcher internalJobs 1624780
scalar FogSequentialForward.fog[48].dispatcher externalJobs 4784310
scalar FogSequentialForward.fog[48].dispatcher remoteJobs 4786703
scalar FogSequentialForward.fog[48].dispatcher probeQueries 0
scalar FogSequentialForward.fog[48].dispatcher probeAnswers 0
scalar FogSequentialForward.fog[48].dispatcher droppedJobsSLA 88979
scalar FogSequentialForward.fog[48].dispatcher jobs_class_1 6409090
scalar FogSequentialForward.fog[48].dispatcher remoteJobs_class_1 4786703
scalar FogSequentialForward.fog[48].dispatcher localJobs_class_1 1533408
scalar FogSequentialForward.fog[48].dispatcher droppedJobsSLA_class_1 88979
scalar FogSequentialForward.fog[48].server[0] rho 1
scalar FogSequentialForward.fog[48].server[0] congestionRatio 0
scalar FogSequentialForward.fog[48].server[0] totalJobs 1533408
scalar FogSequentialForward.fog[48].server[0] droppedJobsQueue 96437
scalar FogSequentialForward.fog[48].server[0] droppedJobsTimout 0
scalar FogSequentialForward.fog[48].server[0] droppedJobsSLA 1021855
scalar FogSequentialForward.fog[48].server[0] droppedJobsTotal 1118292
scalar FogSequentialForward.fog[49].dispatcher localJobs 1534388
scalar FogSequentialForward.fog[49].dispatcher internalJobs 1621748
scalar FogSequentialForward.fog[49].dispatcher externalJobs 4789922
scalar FogSequentialForward.fog[49].dispatcher remoteJobs 4788372
scalar FogSequentialForward.fog[49].dispatcher probeQueries 0
scalar FogSequentialForward.fog[49].dispatcher probeAnswers 0
scalar FogSequentialForward.fog[49].dispatcher droppedJobsSLA 88910
scalar FogSequentialForward.fog[49].dispatcher jobs_class_1 6411670
scalar FogSequentialForward.fog[49].dispatcher remoteJobs_class_1 4788372
scalar FogSequentialForward.fog[49].dispatcher localJobs_class_1 1534388
scalar FogSequentialForward.fog[49].dispatcher droppedJobsSLA_class_1 88910
scalar FogSequentialForward.fog[49].server[0] rho 1
scalar FogSequentialForward.fog[49].server[0] congestionRatio 0
scalar FogSequentialForward.fog[49].server[0] totalJobs 1534388
scalar FogSequentialForward.fog[49].server[0] droppedJobsQueue 96747
scalar FogSequentialForward.fog[49].server[0] droppedJobsTimout 0
scalar FogSequentialForward.fog[49].server[0] droppedJobsSLA 1022439
scalar FogSequentialForward.fog[49].server[0] droppedJobsTotal 1119186
scalar FogSequentialForward.fog[50].dispatcher localJobs 1534905
scalar FogSequentialForward.fog[50].dispatcher internalJobs 1623139
scalar FogSequentialForward.fog[50].dispatcher externalJobs 4790781
scalar FogSequentialForward.fog[50].dispatcher remoteJobs 4790653
scalar FogSequentialForward.fog[50].dispatcher probeQueries 0
scalar FogSequentialForward.fog[50].dispatcher probeAnswers 0
scalar FogSequentialForward.fog[50].dispatcher droppedJobsSLA 88362
scalar FogSequentialForward.fog[50].dispatcher jobs_class_1 6413920
scalar FogSequentialForward.fog[50].dispatcher remoteJobs_class_1 4790653
scalar FogSequentialForward.fog[50].dispatcher localJobs_class_1 1534905
scalar FogSequentialForward.fog[50].dispatcher droppedJobsSLA_class_1 88362
scalar FogSequentialForward.fog[50].server[0] rho 1
scalar FogSequentialForward.fog[50].server[0] congestionRatio 0
scalar FogSequentialForward.fog[50].server[0] totalJobs 1534905
scalar FogSequentialForward.fog[50].server[0] droppedJobsQueue 97004
scalar FogSequentialForward.fog[50].server[0] droppedJobsTimout 0
scalar FogSequentialForward.fog[50].server[0] droppedJobsSLA 1022307
scalar FogSequentialForward.fog[50].server[0] droppedJobsTotal 1119311
scalar FogSequentialForward.fog[51].dispatcher localJobs 1534826
scalar FogSequentialForward.fog[51].dispatcher internalJobs 1620261
scalar FogSequentialForward.fog[51].dispatcher externalJobs 4786396
scalar FogSequentialForward.fog[51].dispatcher remoteJobs 4783363
scalar FogSequentialForward.fog[51].dispatcher probeQueries 0
scalar FogSequentialForward.fog[51].dispatcher probeAnswers 0
scalar FogSequentialForward.fog[51].dispatcher droppedJobsSLA 88468
scalar FogSequentialForward.fog[51].dispatcher jobs_class_1 6406657
scalar FogSequentialForward.fog[51].dispatcher remoteJobs_class_1 4783363
scalar FogSequentialForward.fog[51].dispatcher localJobs_class_1 1534826
scalar FogSequentialForward.fog[51].dispatcher droppedJobsSLA_class_1 88468
scalar FogSequentialForward.fog[51].server[0] rho 1
scalar FogSequentialForward.fog[51].server[0] congestionRatio 0
scalar FogSequentialForward.fog[51].server[0] totalJobs 1534826
scalar FogSequentialForward.fog[51].server[0] droppedJobsQueue 96782
scalar FogSequentialForward.fog[51].server[0] droppedJobsTimout 0
scalar FogSequentialForward.fog[51].server[0] droppedJobsSLA 1022128
scalar FogSequentialForward.fog[51].server[0] droppedJobsTotal 1118910
scalar FogSequentialForward.fog[52].dispatcher localJobs 1534940
scalar FogSequentialForward.fog[52].dispatcher internalJobs 1620984
scalar FogSequentialForward.fog[52].dispatcher externalJobs 4788258
scalar FogSequentialForward.fog[52].dispatcher remoteJobs 4786024
scalar FogSequentialForward.fog[52].dispatcher probeQueries 0
scalar FogSequentialForward.fog[52].dispatcher probeAnswers 0
scalar FogSequentialForward.fog[52].dispatcher droppedJobsSLA 88278
scalar FogSequentialForward.fog[52].dispatcher jobs_class_1 6409242
scalar FogSequentialForward.fog[52].dispatcher remoteJobs_class_1 4786024
scalar FogSequentialForward.fog[52].dispatcher localJobs_class_1 1534940
scalar FogSequentialForward.fog[52].dispatcher droppedJobsSLA_class_1 88278
scalar FogSequentialForward.fog[52].server[0] rho 1
scalar FogSequentialForward.fog[52].server[0] congestionRatio 0
scalar FogSequentialForward.fog[52].server[0] totalJobs 1534940
scalar FogSequentialForward.fog[52].server[0] droppedJobsQueue 96981
scalar FogSequentialForward.fog[52].server[0] droppedJobsTimout 0
scalar FogSequentialForward.fog[52].server[0] droppedJobsSLA 1022234
scalar FogSequentialForward.fog[52].server[0] droppedJobsTotal 1119215
scalar FogSequentialForward.fog[53].dispatcher localJobs 1534804
scalar FogSequentialForward.fog[53].dispatcher internalJobs 1622532
scalar FogSequentialForward.fog[53].dispatcher externalJobs 4789976
scalar FogSequentialForward.fog[53].dispatcher remoteJobs 4789778
scalar FogSequentialForward.fog[53].dispatcher probeQueries 0
scalar FogSequentialForward.fog[53].dispatcher probeAnswers 0
scalar FogSequentialForward.fog[53].dispatcher droppedJobsSLA 87926
scalar FogSequentialForward.fog[53].dispatcher jobs_class_1 6412508
scalar FogSequentialForward.fog[53].dispatcher remoteJobs_class_1 4789778
scalar FogSequentialForward.fog[53].dispatcher localJobs_class_1 1534804
scalar FogSequentialForward.fog[53].dispatcher droppedJobsSLA_class_1 87926
scalar FogSequentialForward.fog[53].server[0] rho 1
scalar FogSequentialForward.fog[53].server[0] congestionRatio 0
scalar FogSequentialForward.fog[53].server[0] totalJobs 1534804
scalar FogSequentialForward.fog[53].server[0] droppedJobsQueue 97156
scalar FogSequentialForward.fog[53].server[0] droppedJobsTimout 0
scalar FogSequentialForward.fog[53].server[0] droppedJobsSLA 1022837
scalar FogSequentialForward.fog[53].server[0] droppedJobsTotal 1119993
scalar FogSequentialForward.fog[54].dispatcher localJobs 1534698
scalar FogSequentialForward.fog[54].dispatcher internalJobs 1622441
scalar FogSequentialForward.fog[54].dispatcher externalJobs 4787527
scalar FogSequentialForward.fog[54].dispatcher remoteJobs 4786805
scalar FogSequentialForward.fog[54].dispatcher probeQueries 0
scalar FogSequentialForward.fog[54].dispatcher probeAnswers 0
scalar FogSequentialForward.fog[54].dispatcher droppedJobsSLA 88465
scalar FogSequentialForward.fog[54].dispatcher jobs_class_1 6409968
scalar FogSequentialForward.fog[54].dispatcher remoteJobs_class_1 4786805
scalar FogSequentialForward.fog[54].dispatcher localJobs_class_1 1534698
scalar FogSequentialForward.fog[54].dispatcher droppedJobsSLA_class_1 88465
scalar FogSequentialForward.fog[54].server[0] rho 1
scalar FogSequentialForward.fog[54].server[0] congestionRatio 0
scalar FogSequentialForward.fog[54].server[0] totalJobs 1534698
scalar FogSequentialForward.fog[54].server[0] droppedJobsQueue 97090
scalar FogSequentialForward.fog[54].server[0] droppedJobsTimout 0
scalar FogSequentialForward.fog[54].server[0] droppedJobsSLA 1022144
scalar FogSequentialForward.fog[54].server[0] droppedJobsTotal 1119234
scalar FogSequentialForward.fog[55].dispatcher localJobs 1535544
scalar FogSequentialForward.fog[55].dispatcher internalJobs 1621382
scalar FogSequentialForward.fog[55].dispatcher externalJobs 4790003
scalar FogSequentialForward.fog[55].dispatcher remoteJobs 4787282
scalar FogSequentialForward.fog[55].dispatcher probeQueries 0
scalar FogSequentialForward.fog[55].dispatcher probeAnswers 0
scalar FogSequentialForward.fog[55].dispatcher droppedJobsSLA 88559
scalar FogSequentialForward.fog[55].dispatcher jobs_class_1 6411385
scalar FogSequentialForward.fog[55].dispatcher remoteJobs_class_1 4787282
scalar FogSequentialForward.fog[55].dispatcher localJobs_class_1 1535544
scalar FogSequentialForward.fog[55].dispatcher droppedJobsSLA_class_1 88559
scalar FogSequentialForward.fog[55].server[0] rho 1
scalar FogSequentialForward.fog[55].server[0] congestionRatio 0
scalar FogSequentialForward.fog[55].server[0] totalJobs 1535544
scalar FogSequentialForward.fog[55].server[0] droppedJobsQueue 96955
scalar FogSequentialForward.fog[55].server[0] droppedJobsTimout 0
scalar FogSequentialForward.fog[55].server[0] droppedJobsSLA 1023068
scalar FogSequentialForward.fog[55].server[0] droppedJobsTotal 1120023
scalar FogSequentialForward.fog[56].dispatcher localJobs 1534161
scalar FogSequentialForward.fog[56].dispatcher internalJobs 1624074
scalar FogSequentialForward.fog[56].dispatcher externalJobs 4784848
scalar FogSequentialForward.fog[56].dispatcher remoteJobs 4786205
scalar FogSequentialForward.fog[56].dispatcher probeQueries 0
scalar FogSequentialForward.fog[56].dispatcher probeAnswers 0
scalar FogSequentialForward.fog[56].dispatcher droppedJobsSLA 88556
scalar FogSequentialForward.fog[56].dispatcher jobs_class_1 6408922
scalar FogSequentialForward.fog[56].dispatcher remoteJobs_class_1 4786205
scalar FogSequentialForward.fog[56].dispatcher localJobs_class_1 1534161
scalar FogSequentialForward.fog[56].dispatcher droppedJobsSLA_class_1 88556
scalar FogSequentialForward.fog[56].server[0] rho 1
scalar FogSequentialForward.fog[56].server[0] congestionRatio 0
scalar FogSequentialForward.fog[56].server[0] totalJobs 1534161
scalar FogSequentialForward.fog[56].server[0] droppedJobsQueue 96728
scalar FogSequentialForward.fog[56].server[0] droppedJobsTimout 0
scalar FogSequentialForward.fog[56].server[0] droppedJobsSLA 1021735
scalar FogSequentialForward.fog[56].server[0] droppedJobsTotal 1118463
scalar FogSequentialForward.fog[57].dispatcher localJobs 1533914
scalar FogSequentialForward.fog[57].dispatcher internalJobs 1623563
scalar FogSequentialForward.fog[57].dispatcher externalJobs 4788836
scalar FogSequentialForward.fog[57].dispatcher remoteJobs 4789418
scalar FogSequentialForward.fog[57].dispatcher probeQueries 0
scalar FogSequentialForward.fog[57].dispatcher probeAnswers 0
scalar FogSequentialForward.fog[57].dispatcher droppedJobsSLA 89067
scalar FogSequentialForward.fog[57].dispatcher jobs_class_1 6412399
scalar FogSequentialForward.fog[57].dispatcher remoteJobs_class_1 4789418
scalar FogSequentialForward.fog[57].dispatcher localJobs_class_1 1533914
scalar FogSequentialForward.fog[57].dispatcher droppedJobsSLA_class_1 89067
scalar FogSequentialForward.fog[57].server[0] rho 1
scalar FogSequentialForward.fog[57].server[0] congestionRatio 0
scalar FogSequentialForward.fog[57].server[0] totalJobs 1533914
scalar FogSequentialForward.fog[57].server[0] droppedJobsQueue 96645
scalar FogSequentialForward.fog[57].server[0] droppedJobsTimout 0
scalar FogSequentialForward.fog[57].server[0] droppedJobsSLA 1022021
scalar FogSequentialForward.fog[57].server[0] droppedJobsTotal 1118666
scalar FogSequentialForward.fog[58].dispatcher localJobs 1533914
scalar FogSequentialForward.fog[58].dispatcher internalJobs 1620212
scalar FogSequentialForward.fog[58].dispatcher externalJobs 4787601
scalar FogSequentialForward.fog[58].dispatcher remoteJobs 4785179
scalar FogSequentialForward.fog[58].dispatcher probeQueries 0
scalar FogSequentialForward.fog[58].dispatcher probeAnswers 0
scalar FogSequentialForward.fog[58].dispatcher droppedJobsSLA 88720
scalar FogSequentialForward.fog[58].dispatcher jobs_class_1 6407813
scalar FogSequentialForward.fog[58].dispatcher remoteJobs_class_1 4785179
scalar FogSequentialForward.fog[58].dispatcher localJobs_class_1 1533914
scalar FogSequentialForward.fog[58].dispatcher droppedJobsSLA_class_1 88720
scalar FogSequentialForward.fog[58].server[0] rho 0.99999994039536
scalar FogSequentialForward.fog[58].server[0] congestionRatio 0
scalar FogSequentialForward.fog[58].server[0] totalJobs 1533914
scalar FogSequentialForward.fog[58].server[0] droppedJobsQueue 96659
scalar FogSequentialForward.fog[58].server[0] droppedJobsTimout 0
scalar FogSequentialForward.fog[58].server[0] droppedJobsSLA 1022040
scalar FogSequentialForward.fog[58].server[0] droppedJobsTotal 1118699
scalar FogSequentialForward.fog[59].dispatcher localJobs 1535211
scalar FogSequentialForward.fog[59].dispatcher internalJobs 1624245
scalar FogSequentialForward.fog[59].dispatcher externalJobs 4788441
scalar FogSequentialForward.fog[59].dispatcher remoteJobs 4788323
scalar FogSequentialForward.fog[59].dispatcher probeQueries 0
scalar FogSequentialForward.fog[59].dispatcher probeAnswers 0
scalar FogSequentialForward.fog[59].dispatcher droppedJobsSLA 89152
scalar FogSequentialForward.fog[59].dispatcher jobs_class_1 6412686
scalar FogSequentialForward.fog[59].dispatcher remoteJobs_class_1 4788323
scalar FogSequentialForward.fog[59].dispatcher localJobs_class_1 1535211
scalar FogSequentialForward.fog[59].dispatcher droppedJobsSLA_class_1 89152
scalar FogSequentialForward.fog[59].server[0] rho 1
scalar FogSequentialForward.fog[59].server[0] congestionRatio 0
scalar FogSequentialForward.fog[59].server[0] totalJobs 1535211
scalar FogSequentialForward.fog[59].server[0] droppedJobsQueue 96932
scalar FogSequentialForward.fog[59].server[0] droppedJobsTimout 0
scalar FogSequentialForward.fog[59].server[0] droppedJobsSLA 1022471
scalar FogSequentialForward.fog[59].server[0] droppedJobsTotal 1119403
scalar FogSequentialForward.fog[60].dispatcher localJobs 1535078
scalar FogSequentialForward.fog[60].dispatcher internalJobs 1622008
scalar FogSequentialForward.fog[60].dispatcher externalJobs 4784114
scalar FogSequentialForward.fog[60].dispatcher remoteJobs 4782876
scalar FogSequentialForward.fog[60].dispatcher probeQueries 0
scalar FogSequentialForward.fog[60].dispatcher probeAnswers 0
scalar FogSequentialForward.fog[60].dispatcher droppedJobsSLA 88168
scalar FogSequentialForward.fog[60].dispatcher jobs_class_1 6406122
scalar FogSequentialForward.fog[60].dispatcher remoteJobs_class_1 4782876
scalar FogSequentialForward.fog[60].dispatcher localJobs_class_1 1535078
scalar FogSequentialForward.fog[60].dispatcher droppedJobsSLA_class_1 88168
scalar FogSequentialForward.fog[60].server[0] rho 1
scalar FogSequentialForward.fog[60].server[0] congestionRatio 0
scalar FogSequentialForward.fog[60].server[0] totalJobs 1535078
scalar FogSequentialForward.fog[60].server[0] droppedJobsQueue 97163
scalar FogSequentialForward.fog[60].server[0] droppedJobsTimout 0
scalar FogSequentialForward.fog[60].server[0] droppedJobsSLA 1022527
scalar FogSequentialForward.fog[60].server[0] droppedJobsTotal 1119690
scalar FogSequentialForward.fog[61].dispatcher localJobs 1534773
scalar FogSequentialForward.fog[61].dispatcher internalJobs 1624126
scalar FogSequentialForward.fog[61].dispatcher externalJobs 4788737
scalar FogSequentialForward.fog[61].dispatcher remoteJobs 4789774
scalar FogSequentialForward.fog[61].dispatcher probeQueries 0
scalar FogSequentialForward.fog[61].dispatcher probeAnswers 0
scalar FogSequentialForward.fog[61].dispatcher droppedJobsSLA 88316
scalar FogSequentialForward.fog[61].dispatcher jobs_class_1 6412863
scalar FogSequentialForward.fog[61].dispatcher remoteJobs_class_1 4789774
scalar FogSequentialForward.fog[61].dispatcher localJobs_class_1 1534773
scalar FogSequentialForward.fog[61].dispatcher droppedJobsSLA_class_1 88316
scalar FogSequentialForward.fog[61].server[0] rho 1
scalar FogSequentialForward.fog[61].server[0] congestionRatio 0
scalar FogSequentialForward.fog[61].server[0] totalJobs 1534773
scalar FogSequentialForward.fog[61].server[0] droppedJobsQueue 96992
scalar FogSequentialForward.fog[61].server[0] droppedJobsTimout 0
scalar FogSequentialForward.fog[61].server[0] droppedJobsSLA 1021975
scalar FogSequentialForward.fog[61].server[0] droppedJobsTotal 1118967
scalar FogSequentialForward.fog[62].dispatcher localJobs 1534292
scalar FogSequentialForward.fog[62].dispatcher internalJobs 1623082
scalar FogSequentialForward.fog[62].dispatcher externalJobs 4783680
scalar FogSequentialForward.fog[62].dispatcher remoteJobs 4784226
scalar FogSequentialForward.fog[62].dispatcher probeQueries 0
scalar FogSequentialForward.fog[62].dispatcher probeAnswers 0
scalar FogSequentialForward.fog[62].dispatcher droppedJobsSLA 88244
scalar FogSequentialForward.fog[62].dispatcher jobs_class_1 6406762
scalar FogSequentialForward.fog[62].dispatcher remoteJobs_class_1 4784226
scalar FogSequentialForward.fog[62].dispatcher localJobs_class_1 1534292
scalar FogSequentialForward.fog[62].dispatcher droppedJobsSLA_class_1 88244
scalar FogSequentialForward.fog[62].server[0] rho 1
scalar FogSequentialForward.fog[62].server[0] congestionRatio 0
scalar FogSequentialForward.fog[62].server[0] totalJobs 1534292
scalar FogSequentialForward.fog[62].server[0] droppedJobsQueue 96892
scalar FogSequentialForward.fog[62].server[0] droppedJobsTimout 0
scalar FogSequentialForward.fog[62].server[0] droppedJobsSLA 1021530
scalar FogSequentialForward.fog[62].server[0] droppedJobsTotal 1118422
scalar FogSequentialForward.fog[63].dispatcher localJobs 1534292
scalar FogSequentialForward.fog[63].dispatcher internalJobs 1622317
scalar FogSequentialForward.fog[63].dispatcher externalJobs 4787781
scalar FogSequentialForward.fog[63].dispatcher remoteJobs 4787172
scalar FogSequentialForward.fog[63].dispatcher probeQueries 0
scalar FogSequentialForward.fog[63].dispatcher probeAnswers 0
scalar FogSequentialForward.fog[63].dispatcher droppedJobsSLA 88634
scalar FogSequentialForward.fog[63].dispatcher jobs_class_1 6410098
scalar FogSequentialForward.fog[63].dispatcher remoteJobs_class_1 4787172
scalar FogSequentialForward.fog[63].dispatcher localJobs_class_1 1534292
scalar FogSequentialForward.fog[63].dispatcher droppedJobsSLA_class_1 88634
scalar FogSequentialForward.fog[63].server[0] rho 1
scalar FogSequentialForward.fog[63].server[0] congestionRatio 0
scalar FogSequentialForward.fog[63].server[0] totalJobs 1534292
scalar FogSequentialForward.fog[63].server[0] droppedJobsQueue 97010
scalar FogSequentialForward.fog[63].server[0] droppedJobsTimout 0
scalar FogSequentialForward.fog[63].server[0] droppedJobsSLA 1021714
scalar FogSequentialForward.fog[63].server[0] droppedJobsTotal 1118724
scalar FogSequentialForward.fog[64].dispatcher localJobs 1534777
scalar FogSequentialForward.fog[64].dispatcher internalJobs 1623855
scalar FogSequentialForward.fog[64].dispatcher externalJobs 4784857
scalar FogSequentialForward.fog[64].dispatcher remoteJobs 4785489
scalar FogSequentialForward.fog[64].dispatcher probeQueries 0
scalar FogSequentialForward.fog[64].dispatcher probeAnswers 0
scalar FogSequentialForward.fog[64].dispatcher droppedJobsSLA 88446
scalar FogSequentialForward.fog[64].dispatcher jobs_class_1 6408712
scalar FogSequentialForward.fog[64].dispatcher remoteJobs_class_1 4785489
scalar FogSequentialForward.fog[64].dispatcher localJobs_class_1 1534777
scalar FogSequentialForward.fog[64].dispatcher droppedJobsSLA_class_1 88446
scalar FogSequentialForward.fog[64].server[0] rho 1
scalar FogSequentialForward.fog[64].server[0] congestionRatio 0
scalar FogSequentialForward.fog[64].server[0] totalJobs 1534777
scalar FogSequentialForward.fog[64].server[0] droppedJobsQueue 96728
scalar FogSequentialForward.fog[64].server[0] droppedJobsTimout 0
scalar FogSequentialForward.fog[64].server[0] droppedJobsSLA 1021203
scalar FogSequentialForward.fog[64].server[0] droppedJobsTotal 1117931
scalar FogSequentialForward.fog[65].dispatcher localJobs 1534432
scalar FogSequentialForward.fog[65].dispatcher internalJobs 1621431
scalar FogSequentialForward.fog[65].dispatcher externalJobs 4784385
scalar FogSequentialForward.fog[65].dispatcher remoteJobs 4782568
scalar FogSequentialForward.fog[65].dispatcher probeQueries 0
scalar FogSequentialForward.fog[65].dispatcher probeAnswers 0
scalar FogSequentialForward.fog[65].dispatcher droppedJobsSLA 88816
scalar FogSequentialForward.fog[65].dispatcher jobs_class_1 6405816
[...]
scalar FogSequentialForward.fog[84].dispatcher jobs_class_1 6412440
scalar FogSequentialForward.fog[84].dispatcher remoteJobs_class_1 4789236
scalar FogSequentialForward.fog[84].dispatcher localJobs_class_1 1534564
scalar FogSequentialForward.fog[84].dispatcher droppedJobsSLA_class_1 88640
scalar FogSequentialForward.fog[84].server[0] rho 1
scalar FogSequentialForward.fog[84].server[0] congestionRatio 0
scalar FogSequentialForward.fog[84].server[0] totalJobs 1534564
scalar FogSequentialForward.fog[84].server[0] droppedJobsQueue 96604
scalar FogSequentialForward.fog[84].server[0] droppedJobsTimout 0
scalar FogSequentialForward.fog[84].server[0] droppedJobsSLA 1022186
scalar FogSequentialForward.fog[84].server[0] droppedJobsTotal 1118790
scalar FogSequentialForward.fog[85].dispatcher localJobs 1534293
scalar FogSequentialForward.fog[85].dispatcher internalJobs 1622567
scalar FogSequentialForward.fog[85].dispatcher externalJobs 4785415
scalar FogSequentialForward.fog[85].dispatcher remoteJobs 4784475
scalar FogSequentialForward.fog[85].dispatcher probeQueries 0
scalar FogSequentialForward.fog[85].dispatcher probeAnswers 0
scalar FogSequentialForward.fog[85].dispatcher droppedJobsSLA 89214
scalar FogSequentialForward.fog[85].dispatcher jobs_class_1 6407982
scalar FogSequentialForward.fog[85].dispatcher remoteJobs_class_1 4784475
scalar FogSequentialForward.fog[85].dispatcher localJobs_class_1 1534293
scalar FogSequentialForward.fog[85].dispatcher droppedJobsSLA_class_1 89214
scalar FogSequentialForward.fog[85].server[0] rho 1
scalar FogSequentialForward.fog[85].server[0] congestionRatio 0
scalar FogSequentialForward.fog[85].server[0] totalJobs 1534293
scalar FogSequentialForward.fog[85].server[0] droppedJobsQueue 96839
scalar FogSequentialForward.fog[85].server[0] droppedJobsTimout 0
scalar FogSequentialForward.fog[85].server[0] droppedJobsSLA 1021720
scalar FogSequentialForward.fog[85].server[0] droppedJobsTotal 1118559
scalar FogSequentialForward.fog[86].dispatcher localJobs 1533825
scalar FogSequentialForward.fog[86].dispatcher internalJobs 1624345
scalar FogSequentialForward.fog[86].dispatcher externalJobs 4787710
scalar FogSequentialForward.fog[86].dispatcher remoteJobs 4790061
scalar FogSequentialForward.fog[86].dispatcher probeQueries 0
scalar FogSequentialForward.fog[86].dispatcher probeAnswers 0
scalar FogSequentialForward.fog[86].dispatcher droppedJobsSLA 88169
scalar FogSequentialForward.fog[86].dispatcher jobs_class_1 6412055
scalar FogSequentialForward.fog[86].dispatcher remoteJobs_class_1 4790061
scalar FogSequentialForward.fog[86].dispatcher localJobs_class_1 1533825
scalar FogSequentialForward.fog[86].dispatcher droppedJobsSLA_class_1 88169
scalar FogSequentialForward.fog[86].server[0] rho 1
scalar FogSequentialForward.fog[86].server[0] congestionRatio 0
scalar FogSequentialForward.fog[86].server[0] totalJobs 1533825
scalar FogSequentialForward.fog[86].server[0] droppedJobsQueue 96878
scalar FogSequentialForward.fog[86].server[0] droppedJobsTimout 0
scalar FogSequentialForward.fog[86].server[0] droppedJobsSLA 1021968
scalar FogSequentialForward.fog[86].server[0] droppedJobsTotal 1118846
scalar FogSequentialForward.fog[87].dispatcher localJobs 1535241
scalar FogSequentialForward.fog[87].dispatcher internalJobs 1620507
scalar FogSequentialForward.fog[87].dispatcher externalJobs 4787416
scalar FogSequentialForward.fog[87].dispatcher remoteJobs 4784553
scalar FogSequentialForward.fog[87].dispatcher probeQueries 0
scalar FogSequentialForward.fog[87].dispatcher probeAnswers 0
scalar FogSequentialForward.fog[87].dispatcher droppedJobsSLA 88129
scalar FogSequentialForward.fog[87].dispatcher jobs_class_1 6407923
scalar FogSequentialForward.fog[87].dispatcher remoteJobs_class_1 4784553
scalar FogSequentialForward.fog[87].dispatcher localJobs_class_1 1535241
scalar FogSequentialForward.fog[87].dispatcher droppedJobsSLA_class_1 88129
scalar FogSequentialForward.fog[87].server[0] rho 1
scalar FogSequentialForward.fog[87].server[0] congestionRatio 0
scalar FogSequentialForward.fog[87].server[0] totalJobs 1535241
scalar FogSequentialForward.fog[87].server[0] droppedJobsQueue 96686
scalar FogSequentialForward.fog[87].server[0] droppedJobsTimout 0
scalar FogSequentialForward.fog[87].server[0] droppedJobsSLA 1022637
scalar FogSequentialForward.fog[87].server[0] droppedJobsTotal 1119323
scalar FogSequentialForward.fog[88].dispatcher localJobs 1534568
scalar FogSequentialForward.fog[88].dispatcher internalJobs 1622440
scalar FogSequentialForward.fog[88].dispatcher externalJobs 4786395
scalar FogSequentialForward.fog[88].dispatcher remoteJobs 4785946
scalar FogSequentialForward.fog[88].dispatcher probeQueries 0
scalar FogSequentialForward.fog[88].dispatcher probeAnswers 0
scalar FogSequentialForward.fog[88].dispatcher droppedJobsSLA 88321
scalar FogSequentialForward.fog[88].dispatcher jobs_class_1 6408835
scalar FogSequentialForward.fog[88].dispatcher remoteJobs_class_1 4785946
scalar FogSequentialForward.fog[88].dispatcher localJobs_class_1 1534568
scalar FogSequentialForward.fog[88].dispatcher droppedJobsSLA_class_1 88321
scalar FogSequentialForward.fog[88].server[0] rho 0.99999964237213
scalar FogSequentialForward.fog[88].server[0] congestionRatio 0
scalar FogSequentialForward.fog[88].server[0] totalJobs 1534568
scalar FogSequentialForward.fog[88].server[0] droppedJobsQueue 96793
scalar FogSequentialForward.fog[88].server[0] droppedJobsTimout 0
scalar FogSequentialForward.fog[88].server[0] droppedJobsSLA 1022371
scalar FogSequentialForward.fog[88].server[0] droppedJobsTotal 1119164
scalar FogSequentialForward.fog[89].dispatcher localJobs 1534806
scalar FogSequentialForward.fog[89].dispatcher internalJobs 1620817
scalar FogSequentialForward.fog[89].dispatcher externalJobs 4788178
scalar FogSequentialForward.fog[89].dispatcher remoteJobs 4785251
scalar FogSequentialForward.fog[89].dispatcher probeQueries 0
scalar FogSequentialForward.fog[89].dispatcher probeAnswers 0
scalar FogSequentialForward.fog[89].dispatcher droppedJobsSLA 88938
scalar FogSequentialForward.fog[89].dispatcher jobs_class_1 6408995
scalar FogSequentialForward.fog[89].dispatcher remoteJobs_class_1 4785251
scalar FogSequentialForward.fog[89].dispatcher localJobs_class_1 1534806
scalar FogSequentialForward.fog[89].dispatcher droppedJobsSLA_class_1 88938
scalar FogSequentialForward.fog[89].server[0] rho 0.99999868869781
scalar FogSequentialForward.fog[89].server[0] congestionRatio 0
scalar FogSequentialForward.fog[89].server[0] totalJobs 1534806
scalar FogSequentialForward.fog[89].server[0] droppedJobsQueue 96639
scalar FogSequentialForward.fog[89].server[0] droppedJobsTimout 0
scalar FogSequentialForward.fog[89].server[0] droppedJobsSLA 1022385
scalar FogSequentialForward.fog[89].server[0] droppedJobsTotal 1119024
scalar FogSequentialForward.fog[90].dispatcher localJobs 1535573
scalar FogSequentialForward.fog[90].dispatcher internalJobs 1626288
scalar FogSequentialForward.fog[90].dispatcher externalJobs 4791107
scalar FogSequentialForward.fog[90].dispatcher remoteJobs 4793257
scalar FogSequentialForward.fog[90].dispatcher probeQueries 0
scalar FogSequentialForward.fog[90].dispatcher probeAnswers 0
scalar FogSequentialForward.fog[90].dispatcher droppedJobsSLA 88565
scalar FogSequentialForward.fog[90].dispatcher jobs_class_1 6417395
scalar FogSequentialForward.fog[90].dispatcher remoteJobs_class_1 4793257
scalar FogSequentialForward.fog[90].dispatcher localJobs_class_1 1535573
scalar FogSequentialForward.fog[90].dispatcher droppedJobsSLA_class_1 88565
scalar FogSequentialForward.fog[90].server[0] rho 1
scalar FogSequentialForward.fog[90].server[0] congestionRatio 0
scalar FogSequentialForward.fog[90].server[0] totalJobs 1535573
scalar FogSequentialForward.fog[90].server[0] droppedJobsQueue 97102
scalar FogSequentialForward.fog[90].server[0] droppedJobsTimout 0
scalar FogSequentialForward.fog[90].server[0] droppedJobsSLA 1023153
scalar FogSequentialForward.fog[90].server[0] droppedJobsTotal 1120255
scalar FogSequentialForward.fog[91].dispatcher localJobs 1535440
scalar FogSequentialForward.fog[91].dispatcher internalJobs 1622741
scalar FogSequentialForward.fog[91].dispatcher externalJobs 4789488
scalar FogSequentialForward.fog[91].dispatcher remoteJobs 4788325
scalar FogSequentialForward.fog[91].dispatcher probeQueries 0
scalar FogSequentialForward.fog[91].dispatcher probeAnswers 0
scalar FogSequentialForward.fog[91].dispatcher droppedJobsSLA 88464
scalar FogSequentialForward.fog[91].dispatcher jobs_class_1 6412229
scalar FogSequentialForward.fog[91].dispatcher remoteJobs_class_1 4788325
scalar FogSequentialForward.fog[91].dispatcher localJobs_class_1 1535440
scalar FogSequentialForward.fog[91].dispatcher droppedJobsSLA_class_1 88464
scalar FogSequentialForward.fog[91].server[0] rho 1
scalar FogSequentialForward.fog[91].server[0] congestionRatio 0
scalar FogSequentialForward.fog[91].server[0] totalJobs 1535440
scalar FogSequentialForward.fog[91].server[0] droppedJobsQueue 97254
scalar FogSequentialForward.fog[91].server[0] droppedJobsTimout 0
scalar FogSequentialForward.fog[91].server[0] droppedJobsSLA 1022864
scalar FogSequentialForward.fog[91].server[0] droppedJobsTotal 1120118
scalar FogSequentialForward.fog[92].dispatcher localJobs 1534499
scalar FogSequentialForward.fog[92].dispatcher internalJobs 1622857
scalar FogSequentialForward.fog[92].dispatcher externalJobs 4787027
scalar FogSequentialForward.fog[92].dispatcher remoteJobs 4786856
scalar FogSequentialForward.fog[92].dispatcher probeQueries 0
scalar FogSequentialForward.fog[92].dispatcher probeAnswers 0
scalar FogSequentialForward.fog[92].dispatcher droppedJobsSLA 88529
scalar FogSequentialForward.fog[92].dispatcher jobs_class_1 6409884
scalar FogSequentialForward.fog[92].dispatcher remoteJobs_class_1 4786856
scalar FogSequentialForward.fog[92].dispatcher localJobs_class_1 1534499
scalar FogSequentialForward.fog[92].dispatcher droppedJobsSLA_class_1 88529
scalar FogSequentialForward.fog[92].server[0] rho 1
scalar FogSequentialForward.fog[92].server[0] congestionRatio 0
scalar FogSequentialForward.fog[92].server[0] totalJobs 1534499
scalar FogSequentialForward.fog[92].server[0] droppedJobsQueue 97033
scalar FogSequentialForward.fog[92].server[0] droppedJobsTimout 0
scalar FogSequentialForward.fog[92].server[0] droppedJobsSLA 1021553
scalar FogSequentialForward.fog[92].server[0] droppedJobsTotal 1118586
scalar FogSequentialForward.fog[93].dispatcher localJobs 1535065
scalar FogSequentialForward.fog[93].dispatcher internalJobs 1623145
scalar FogSequentialForward.fog[93].dispatcher externalJobs 4786341
scalar FogSequentialForward.fog[93].dispatcher remoteJobs 4786473
scalar FogSequentialForward.fog[93].dispatcher probeQueries 0
scalar FogSequentialForward.fog[93].dispatcher probeAnswers 0
scalar FogSequentialForward.fog[93].dispatcher droppedJobsSLA 87948
scalar FogSequentialForward.fog[93].dispatcher jobs_class_1 6409486
scalar FogSequentialForward.fog[93].dispatcher remoteJobs_class_1 4786473
scalar FogSequentialForward.fog[93].dispatcher localJobs_class_1 1535065
scalar FogSequentialForward.fog[93].dispatcher droppedJobsSLA_class_1 87948
scalar FogSequentialForward.fog[93].server[0] rho 1
scalar FogSequentialForward.fog[93].server[0] congestionRatio 0
scalar FogSequentialForward.fog[93].server[0] totalJobs 1535065
scalar FogSequentialForward.fog[93].server[0] droppedJobsQueue 97069
scalar FogSequentialForward.fog[93].server[0] droppedJobsTimout 0
scalar FogSequentialForward.fog[93].server[0] droppedJobsSLA 1022378
scalar FogSequentialForward.fog[93].server[0] droppedJobsTotal 1119447
scalar FogSequentialForward.fog[94].dispatcher localJobs 1534911
scalar FogSequentialForward.fog[94].dispatcher internalJobs 1624205
scalar FogSequentialForward.fog[94].dispatcher externalJobs 4785671
scalar FogSequentialForward.fog[94].dispatcher remoteJobs 4786302
scalar FogSequentialForward.fog[94].dispatcher probeQueries 0
scalar FogSequentialForward.fog[94].dispatcher probeAnswers 0
scalar FogSequentialForward.fog[94].dispatcher droppedJobsSLA 88663
scalar FogSequentialForward.fog[94].dispatcher jobs_class_1 6409876
scalar FogSequentialForward.fog[94].dispatcher remoteJobs_class_1 4786302
scalar FogSequentialForward.fog[94].dispatcher localJobs_class_1 1534911
scalar FogSequentialForward.fog[94].dispatcher droppedJobsSLA_class_1 88663
scalar FogSequentialForward.fog[94].server[0] rho 1
scalar FogSequentialForward.fog[94].server[0] congestionRatio 0
scalar FogSequentialForward.fog[94].server[0] totalJobs 1534911
scalar FogSequentialForward.fog[94].server[0] droppedJobsQueue 96847
scalar FogSequentialForward.fog[94].server[0] droppedJobsTimout 0
scalar FogSequentialForward.fog[94].server[0] droppedJobsSLA 1022383
scalar FogSequentialForward.fog[94].server[0] droppedJobsTotal 1119230
scalar FogSequentialForward.fog[95].dispatcher localJobs 1534580
scalar FogSequentialForward.fog[95].dispatcher internalJobs 1623050
scalar FogSequentialForward.fog[95].dispatcher externalJobs 4784750
scalar FogSequentialForward.fog[95].dispatcher remoteJobs 4784172
scalar FogSequentialForward.fog[95].dispatcher probeQueries 0
scalar FogSequentialForward.fog[95].dispatcher probeAnswers 0
scalar FogSequentialForward.fog[95].dispatcher droppedJobsSLA 89048
scalar FogSequentialForward.fog[95].dispatcher jobs_class_1 6407800
scalar FogSequentialForward.fog[95].dispatcher remoteJobs_class_1 4784172
scalar FogSequentialForward.fog[95].dispatcher localJobs_class_1 1534580
scalar FogSequentialForward.fog[95].dispatcher droppedJobsSLA_class_1 89048
scalar FogSequentialForward.fog[95].server[0] rho 1
scalar FogSequentialForward.fog[95].server[0] congestionRatio 0
scalar FogSequentialForward.fog[95].server[0] totalJobs 1534580
scalar FogSequentialForward.fog[95].server[0] droppedJobsQueue 96738
scalar FogSequentialForward.fog[95].server[0] droppedJobsTimout 0
scalar FogSequentialForward.fog[95].server[0] droppedJobsSLA 1022451
scalar FogSequentialForward.fog[95].server[0] droppedJobsTotal 1119189
scalar FogSequentialForward.fog[96].dispatcher localJobs 1535126
scalar FogSequentialForward.fog[96].dispatcher internalJobs 1621581
scalar FogSequentialForward.fog[96].dispatcher externalJobs 4785272
scalar FogSequentialForward.fog[96].dispatcher remoteJobs 4783048
scalar FogSequentialForward.fog[96].dispatcher probeQueries 0
scalar FogSequentialForward.fog[96].dispatcher probeAnswers 0
scalar FogSequentialForward.fog[96].dispatcher droppedJobsSLA 88679
scalar FogSequentialForward.fog[96].dispatcher jobs_class_1 6406853
scalar FogSequentialForward.fog[96].dispatcher remoteJobs_class_1 4783048
scalar FogSequentialForward.fog[96].dispatcher localJobs_class_1 1535126
scalar FogSequentialForward.fog[96].dispatcher droppedJobsSLA_class_1 88679
scalar FogSequentialForward.fog[96].server[0] rho 1
scalar FogSequentialForward.fog[96].server[0] congestionRatio 0
scalar FogSequentialForward.fog[96].server[0] totalJobs 1535126
scalar FogSequentialForward.fog[96].server[0] droppedJobsQueue 96857
scalar FogSequentialForward.fog[96].server[0] droppedJobsTimout 0
scalar FogSequentialForward.fog[96].server[0] droppedJobsSLA 1022280
scalar FogSequentialForward.fog[96].server[0] droppedJobsTotal 1119137
scalar FogSequentialForward.fog[97].dispatcher localJobs 1534122
scalar FogSequentialForward.fog[97].dispatcher internalJobs 1626095
scalar FogSequentialForward.fog[97].dispatcher externalJobs 4787800
scalar FogSequentialForward.fog[97].dispatcher remoteJobs 4791537
scalar FogSequentialForward.fog[97].dispatcher probeQueries 0
scalar FogSequentialForward.fog[97].dispatcher probeAnswers 0
scalar FogSequentialForward.fog[97].dispatcher droppedJobsSLA 88236
scalar FogSequentialForward.fog[97].dispatcher jobs_class_1 6413895
scalar FogSequentialForward.fog[97].dispatcher remoteJobs_class_1 4791537
scalar FogSequentialForward.fog[97].dispatcher localJobs_class_1 1534122
scalar FogSequentialForward.fog[97].dispatcher droppedJobsSLA_class_1 88236
scalar FogSequentialForward.fog[97].server[0] rho 0.99999982118607
scalar FogSequentialForward.fog[97].server[0] congestionRatio 0
scalar FogSequentialForward.fog[97].server[0] totalJobs 1534122
scalar FogSequentialForward.fog[97].server[0] droppedJobsQueue 96837
scalar FogSequentialForward.fog[97].server[0] droppedJobsTimout 0
scalar FogSequentialForward.fog[97].server[0] droppedJobsSLA 1021558
scalar FogSequentialForward.fog[97].server[0] droppedJobsTotal 1118395
scalar FogSequentialForward.fog[98].dispatcher localJobs 1534357
scalar FogSequentialForward.fog[98].dispatcher internalJobs 1623800
scalar FogSequentialForward.fog[98].dispatcher externalJobs 4789475
scalar FogSequentialForward.fog[98].dispatcher remoteJobs 4790210
scalar FogSequentialForward.fog[98].dispatcher probeQueries 0
scalar FogSequentialForward.fog[98].dispatcher probeAnswers 0
scalar FogSequentialForward.fog[98].dispatcher droppedJobsSLA 88708
scalar FogSequentialForward.fog[98].dispatcher jobs_class_1 6413275
scalar FogSequentialForward.fog[98].dispatcher remoteJobs_class_1 4790210
scalar FogSequentialForward.fog[98].dispatcher localJobs_class_1 1534357
scalar FogSequentialForward.fog[98].dispatcher droppedJobsSLA_class_1 88708
scalar FogSequentialForward.fog[98].server[0] rho 1
scalar FogSequentialForward.fog[98].server[0] congestionRatio 0
scalar FogSequentialForward.fog[98].server[0] totalJobs 1534357
scalar FogSequentialForward.fog[98].server[0] droppedJobsQueue 96715
scalar FogSequentialForward.fog[98].server[0] droppedJobsTimout 0
scalar FogSequentialForward.fog[98].server[0] droppedJobsSLA 1021598
scalar FogSequentialForward.fog[98].server[0] droppedJobsTotal 1118313
scalar FogSequentialForward.fog[99].dispatcher localJobs 1534787
scalar FogSequentialForward.fog[99].dispatcher internalJobs 1621451
scalar FogSequentialForward.fog[99].dispatcher externalJobs 4787104
scalar FogSequentialForward.fog[99].dispatcher remoteJobs 4785286
scalar FogSequentialForward.fog[99].dispatcher probeQueries 0
scalar FogSequentialForward.fog[99].dispatcher probeAnswers 0
scalar FogSequentialForward.fog[99].dispatcher droppedJobsSLA 88482
scalar FogSequentialForward.fog[99].dispatcher jobs_class_1 6408555
scalar FogSequentialForward.fog[99].dispatcher remoteJobs_class_1 4785286
scalar FogSequentialForward.fog[99].dispatcher localJobs_class_1 1534787
scalar FogSequentialForward.fog[99].dispatcher droppedJobsSLA_class_1 88482
scalar FogSequentialForward.fog[99].server[0] rho 1
scalar FogSequentialForward.fog[99].server[0] congestionRatio 0
scalar FogSequentialForward.fog[99].server[0] totalJobs 1534787
scalar FogSequentialForward.fog[99].server[0] droppedJobsQueue 96965
scalar FogSequentialForward.fog[99].server[0] droppedJobsTimout 0
scalar FogSequentialForward.fog[99].server[0] droppedJobsSLA 1021863
scalar FogSequentialForward.fog[99].server[0] droppedJobsTotal 1118828
scalar FogSequentialForward.sink avg_responseTime_1 0.14637573335011
scalar FogSequentialForward.sink p90_responseTime_1 0.015802563547
scalar FogSequentialForward.sink med_responseTime_1 0.015802563547
scalar FogSequentialForward.sink avg_delayTime_1 0
scalar FogSequentialForward.sink p90_delayTime_1 0
scalar FogSequentialForward.sink med_delayTime_1 0
scalar FogSequentialForward.sink avg_queuingTime_1 0.12010013101316
scalar FogSequentialForward.sink p90_queuingTime_1 0
scalar FogSequentialForward.sink med_queuingTime_1 0
scalar FogSequentialForward.sink avg_serviceTime_1 0.016736273454462
scalar FogSequentialForward.sink p90_serviceTime_1 0.014728789045
scalar FogSequentialForward.sink med_serviceTime_1 0.014728789045
scalar FogSequentialForward.sink avg_balancerTime_1 0.0095393288806697
scalar FogSequentialForward.sink p90_balancerTime_1 0
scalar FogSequentialForward.sink med_balancerTime_1 0
scalar FogSequentialForward.sink avg_balancerCount_1 1.5712172983524
scalar FogSequentialForward.sink p90_balancerCount_1 1
scalar FogSequentialForward.sink med_balancerCount_1 1

