version 2
run Fog-mul_10-rho_08-thr_10-2-20190714-05:03:46-100295
attr configname Fog-mul_10-rho_08-thr_10
attr datetime 20190714-05:03:46
attr experiment Fog-mul_10-rho_08-thr_10
attr inifile FogSequentialForward.ini
attr iterationvars ""
attr iterationvarsf ""
attr measurement ""
attr network FogSequentialForward
attr processid 100295
attr repetition 2
attr replication #2
attr resultdir results
attr runnumber 2
attr seedset 2
param FogSequentialForward.proctimeMul 1.0
param FogSequentialForward.rho 0.8
param FogSequentialForward.fog[*].dispatcher.thr 10
param FogSequentialForward.nSources 100
param FogSequentialForward.rho 0.9
param FogSequentialForward.proctimeMul 1.0
param FogSequentialForward.source[*].appId 1
param FogSequentialForward.source[*].realTime true
param FogSequentialForward.source[*].multiHop true
param FogSequentialForward.fog[*].nServers 1
param FogSequentialForward.fog[*].dispatcher.fanOut 1
param FogSequentialForward.fog[*].server[*].timeSlice -1s
param FogSequentialForward.fog[*].server[*].timeout -1s
param FogSequentialForward.fog[*].server[*].capacity 20
param FogSequentialForward.fog[*].server[*].fifo true
param FogSequentialForward.fog[*].server[*].maxServiceTime -1s
param FogSequentialForward.fog[*].dispatcher.thr 1

scalar FogSequentialForward.fog[0].dispatcher localJobs 14166
scalar FogSequentialForward.fog[0].dispatcher internalJobs 14242
scalar FogSequentialForward.fog[0].dispatcher externalJobs 3450028
scalar FogSequentialForward.fog[0].dispatcher remoteJobs 3449892
scalar FogSequentialForward.fog[0].dispatcher probeQueries 0
scalar FogSequentialForward.fog[0].dispatcher probeAnswers 0
scalar FogSequentialForward.fog[0].dispatcher droppedJobsSLA 212
scalar FogSequentialForward.fog[0].dispatcher jobs_class_1 3464270
scalar FogSequentialForward.fog[0].dispatcher remoteJobs_class_1 3449892
scalar FogSequentialForward.fog[0].dispatcher localJobs_class_1 14166
scalar FogSequentialForward.fog[0].dispatcher droppedJobsSLA_class_1 212
scalar FogSequentialForward.fog[0].server[0] rho 0.99999994039536
scalar FogSequentialForward.fog[0].server[0] congestionRatio 0
scalar FogSequentialForward.fog[0].server[0] totalJobs 14166
scalar FogSequentialForward.fog[0].server[0] droppedJobsQueue 953
scalar FogSequentialForward.fog[0].server[0] droppedJobsTimout 0
scalar FogSequentialForward.fog[0].server[0] droppedJobsSLA 8462
scalar FogSequentialForward.fog[0].server[0] droppedJobsTotal 9415
scalar FogSequentialForward.fog[1].dispatcher localJobs 14132
scalar FogSequentialForward.fog[1].dispatcher internalJobs 14390
scalar FogSequentialForward.fog[1].dispatcher externalJobs 3447242
scalar FogSequentialForward.fog[1].dispatcher remoteJobs 3447267
scalar FogSequentialForward.fog[1].dispatcher probeQueries 0
scalar FogSequentialForward.fog[1].dispatcher probeAnswers 0
scalar FogSequentialForward.fog[1].dispatcher droppedJobsSLA 233
scalar FogSequentialForward.fog[1].dispatcher jobs_class_1 3461632
scalar FogSequentialForward.fog[1].dispatcher remoteJobs_class_1 3447267
scalar FogSequentialForward.fog[1].dispatcher localJobs_class_1 14132
scalar FogSequentialForward.fog[1].dispatcher droppedJobsSLA_class_1 233
scalar FogSequentialForward.fog[1].server[0] rho 0.99994271993637
scalar FogSequentialForward.fog[1].server[0] congestionRatio 0
scalar FogSequentialForward.fog[1].server[0] totalJobs 14132
scalar FogSequentialForward.fog[1].server[0] droppedJobsQueue 952
scalar FogSequentialForward.fog[1].server[0] droppedJobsTimout 0
scalar FogSequentialForward.fog[1].server[0] droppedJobsSLA 8441
scalar FogSequentialForward.fog[1].server[0] droppedJobsTotal 9393
scalar FogSequentialForward.fog[2].dispatcher localJobs 14203
scalar FogSequentialForward.fog[2].dispatcher internalJobs 14493
scalar FogSequentialForward.fog[2].dispatcher externalJobs 3448841
scalar FogSequentialForward.fog[2].dispatcher remoteJobs 3448904
scalar FogSequentialForward.fog[2].dispatcher probeQueries 0
scalar FogSequentialForward.fog[2].dispatcher probeAnswers 0
scalar FogSequentialForward.fog[2].dispatcher droppedJobsSLA 227
scalar FogSequentialForward.fog[2].dispatcher jobs_class_1 3463334
scalar FogSequentialForward.fog[2].dispatcher remoteJobs_class_1 3448904
scalar FogSequentialForward.fog[2].dispatcher localJobs_class_1 14203
scalar FogSequentialForward.fog[2].dispatcher droppedJobsSLA_class_1 227
scalar FogSequentialForward.fog[2].server[0] rho 1
scalar FogSequentialForward.fog[2].server[0] congestionRatio 0
scalar FogSequentialForward.fog[2].server[0] totalJobs 14203
scalar FogSequentialForward.fog[2].server[0] droppedJobsQueue 961
scalar FogSequentialForward.fog[2].server[0] droppedJobsTimout 0
scalar FogSequentialForward.fog[2].server[0] droppedJobsSLA 8530
scalar FogSequentialForward.fog[2].server[0] droppedJobsTotal 9491
scalar FogSequentialForward.fog[3].dispatcher localJobs 14204
scalar FogSequentialForward.fog[3].dispatcher internalJobs 14277
scalar FogSequentialForward.fog[3].dispatcher externalJobs 3446437
scalar FogSequentialForward.fog[3].dispatcher remoteJobs 3446286
scalar FogSequentialForward.fog[3].dispatcher probeQueries 0
scalar FogSequentialForward.fog[3].dispatcher probeAnswers 0
scalar FogSequentialForward.fog[3].dispatcher droppedJobsSLA 224
scalar FogSequentialForward.fog[3].dispatcher jobs_class_1 3460714
scalar FogSequentialForward.fog[3].dispatcher remoteJobs_class_1 3446286
scalar FogSequentialForward.fog[3].dispatcher localJobs_class_1 14204
scalar FogSequentialForward.fog[3].dispatcher droppedJobsSLA_class_1 224
scalar FogSequentialForward.fog[3].server[0] rho 1
scalar FogSequentialForward.fog[3].server[0] congestionRatio 0
scalar FogSequentialForward.fog[3].server[0] totalJobs 14204
scalar FogSequentialForward.fog[3].server[0] droppedJobsQueue 960
scalar FogSequentialForward.fog[3].server[0] droppedJobsTimout 0
scalar FogSequentialForward.fog[3].server[0] droppedJobsSLA 8516
scalar FogSequentialForward.fog[3].server[0] droppedJobsTotal 9476
scalar FogSequentialForward.fog[4].dispatcher localJobs 14210
scalar FogSequentialForward.fog[4].dispatcher internalJobs 14376
scalar FogSequentialForward.fog[4].dispatcher externalJobs 3446786
scalar FogSequentialForward.fog[4].dispatcher remoteJobs 3446697
scalar FogSequentialForward.fog[4].dispatcher probeQueries 0
scalar FogSequentialForward.fog[4].dispatcher probeAnswers 0
scalar FogSequentialForward.fog[4].dispatcher droppedJobsSLA 255
scalar FogSequentialForward.fog[4].dispatcher jobs_class_1 3461162
scalar FogSequentialForward.fog[4].dispatcher remoteJobs_class_1 3446697
scalar FogSequentialForward.fog[4].dispatcher localJobs_class_1 14210
scalar FogSequentialForward.fog[4].dispatcher droppedJobsSLA_class_1 255
scalar FogSequentialForward.fog[4].server[0] rho 1
scalar FogSequentialForward.fog[4].server[0] congestionRatio 0
scalar FogSequentialForward.fog[4].server[0] totalJobs 14210
scalar FogSequentialForward.fog[4].server[0] droppedJobsQueue 958
scalar FogSequentialForward.fog[4].server[0] droppedJobsTimout 0
scalar FogSequentialForward.fog[4].server[0] droppedJobsSLA 8524
scalar FogSequentialForward.fog[4].server[0] droppedJobsTotal 9482
scalar FogSequentialForward.fog[5].dispatcher localJobs 14158
scalar FogSequentialForward.fog[5].dispatcher internalJobs 14297
scalar FogSequentialForward.fog[5].dispatcher externalJobs 3446535
scalar FogSequentialForward.fog[5].dispatcher remoteJobs 3446442
scalar FogSequentialForward.fog[5].dispatcher probeQueries 0
scalar FogSequentialForward.fog[5].dispatcher probeAnswers 0
scalar FogSequentialForward.fog[5].dispatcher droppedJobsSLA 232
scalar FogSequentialForward.fog[5].dispatcher jobs_class_1 3460832
scalar FogSequentialForward.fog[5].dispatcher remoteJobs_class_1 3446442
scalar FogSequentialForward.fog[5].dispatcher localJobs_class_1 14158
scalar FogSequentialForward.fog[5].dispatcher droppedJobsSLA_class_1 232
scalar FogSequentialForward.fog[5].server[0] rho 1
scalar FogSequentialForward.fog[5].server[0] congestionRatio 0
scalar FogSequentialForward.fog[5].server[0] totalJobs 14158
scalar FogSequentialForward.fog[5].server[0] droppedJobsQueue 957
scalar FogSequentialForward.fog[5].server[0] droppedJobsTimout 0
scalar FogSequentialForward.fog[5].server[0] droppedJobsSLA 8450
scalar FogSequentialForward.fog[5].server[0] droppedJobsTotal 9407
scalar FogSequentialForward.fog[6].dispatcher localJobs 14237
scalar FogSequentialForward.fog[6].dispatcher internalJobs 14287
scalar FogSequentialForward.fog[6].dispatcher externalJobs 3450341
scalar FogSequentialForward.fog[6].dispatcher remoteJobs 3450160
scalar FogSequentialForward.fog[6].dispatcher probeQueries 0
scalar FogSequentialForward.fog[6].dispatcher probeAnswers 0
scalar FogSequentialForward.fog[6].dispatcher droppedJobsSLA 231
scalar FogSequentialForward.fog[6].dispatcher jobs_class_1 3464628
scalar FogSequentialForward.fog[6].dispatcher remoteJobs_class_1 3450160
scalar FogSequentialForward.fog[6].dispatcher localJobs_class_1 14237
scalar FogSequentialForward.fog[6].dispatcher droppedJobsSLA_class_1 231
scalar FogSequentialForward.fog[6].server[0] rho 1
scalar FogSequentialForward.fog[6].server[0] congestionRatio 0
scalar FogSequentialForward.fog[6].server[0] totalJobs 14237
scalar FogSequentialForward.fog[6].server[0] droppedJobsQueue 959
scalar FogSequentialForward.fog[6].server[0] droppedJobsTimout 0
scalar FogSequentialForward.fog[6].server[0] droppedJobsSLA 8572
scalar FogSequentialForward.fog[6].server[0] droppedJobsTotal 9531
scalar FogSequentialForward.fog[7].dispatcher localJobs 14245
scalar FogSequentialForward.fog[7].dispatcher internalJobs 14506
scalar FogSequentialForward.fog[7].dispatcher externalJobs 3448447
scalar FogSequentialForward.fog[7].dispatcher remoteJobs 3448485
scalar FogSequentialForward.fog[7].dispatcher probeQueries 0
scalar FogSequentialForward.fog[7].dispatcher probeAnswers 0
scalar FogSequentialForward.fog[7].dispatcher droppedJobsSLA 223
scalar FogSequentialForward.fog[7].dispatcher jobs_class_1 3462953
scalar FogSequentialForward.fog[7].dispatcher remoteJobs_class_1 3448485
scalar FogSequentialForward.fog[7].dispatcher localJobs_class_1 14245
scalar FogSequentialForward.fog[7].dispatcher droppedJobsSLA_class_1 223
scalar FogSequentialForward.fog[7].server[0] rho 1
scalar FogSequentialForward.fog[7].server[0] congestionRatio 0
scalar FogSequentialForward.fog[7].server[0] totalJobs 14245
scalar FogSequentialForward.fog[7].server[0] droppedJobsQueue 962
scalar FogSequentialForward.fog[7].server[0] droppedJobsTimout 0
scalar FogSequentialForward.fog[7].server[0] droppedJobsSLA 8553
scalar FogSequentialForward.fog[7].server[0] droppedJobsTotal 9515
scalar FogSequentialForward.fog[8].dispatcher localJobs 14224
scalar FogSequentialForward.fog[8].dispatcher internalJobs 14475
scalar FogSequentialForward.fog[8].dispatcher externalJobs 3446268
scalar FogSequentialForward.fog[8].dispatcher remoteJobs 3446270
scalar FogSequentialForward.fog[8].dispatcher probeQueries 0
scalar FogSequentialForward.fog[8].dispatcher probeAnswers 0
scalar FogSequentialForward.fog[8].dispatcher droppedJobsSLA 249
scalar FogSequentialForward.fog[8].dispatcher jobs_class_1 3460743
scalar FogSequentialForward.fog[8].dispatcher remoteJobs_class_1 3446270
scalar FogSequentialForward.fog[8].dispatcher localJobs_class_1 14224
scalar FogSequentialForward.fog[8].dispatcher droppedJobsSLA_class_1 249
scalar FogSequentialForward.fog[8].server[0] rho 1
scalar FogSequentialForward.fog[8].server[0] congestionRatio 0
scalar FogSequentialForward.fog[8].server[0] totalJobs 14224
scalar FogSequentialForward.fog[8].server[0] droppedJobsQueue 963
scalar FogSequentialForward.fog[8].server[0] droppedJobsTimout 0
scalar FogSequentialForward.fog[8].server[0] droppedJobsSLA 8518
scalar FogSequentialForward.fog[8].server[0] droppedJobsTotal 9481
scalar FogSequentialForward.fog[9].dispatcher localJobs 14268
scalar FogSequentialForward.fog[9].dispatcher internalJobs 14523
scalar FogSequentialForward.fog[9].dispatcher externalJobs 3450060
scalar FogSequentialForward.fog[9].dispatcher remoteJobs 3450102
scalar FogSequentialForward.fog[9].dispatcher probeQueries 0
scalar FogSequentialForward.fog[9].dispatcher probeAnswers 0
scalar FogSequentialForward.fog[9].dispatcher droppedJobsSLA 213
scalar FogSequentialForward.fog[9].dispatcher jobs_class_1 3464583
scalar FogSequentialForward.fog[9].dispatcher remoteJobs_class_1 3450102
scalar FogSequentialForward.fog[9].dispatcher localJobs_class_1 14268
scalar FogSequentialForward.fog[9].dispatcher droppedJobsSLA_class_1 213
scalar FogSequentialForward.fog[9].server[0] rho 1
scalar FogSequentialForward.fog[9].server[0] congestionRatio 0
scalar FogSequentialForward.fog[9].server[0] totalJobs 14268
scalar FogSequentialForward.fog[9].server[0] droppedJobsQueue 963
scalar FogSequentialForward.fog[9].server[0] droppedJobsTimout 0
scalar FogSequentialForward.fog[9].server[0] droppedJobsSLA 8513
scalar FogSequentialForward.fog[9].server[0] droppedJobsTotal 9476
scalar FogSequentialForward.fog[10].dispatcher localJobs 14217
scalar FogSequentialForward.fog[10].dispatcher internalJobs 14470
scalar FogSequentialForward.fog[10].dispatcher externalJobs 3449678
scalar FogSequentialForward.fog[10].dispatcher remoteJobs 3449703
scalar FogSequentialForward.fog[10].dispatcher probeQueries 0
scalar FogSequentialForward.fog[10].dispatcher probeAnswers 0
scalar FogSequentialForward.fog[10].dispatcher droppedJobsSLA 228
scalar FogSequentialForward.fog[10].dispatcher jobs_class_1 3464148
scalar FogSequentialForward.fog[10].dispatcher remoteJobs_class_1 3449703
scalar FogSequentialForward.fog[10].dispatcher localJobs_class_1 14217
scalar FogSequentialForward.fog[10].dispatcher droppedJobsSLA_class_1 228
scalar FogSequentialForward.fog[10].server[0] rho 0.99999982118607
scalar FogSequentialForward.fog[10].server[0] congestionRatio 0
scalar FogSequentialForward.fog[10].server[0] totalJobs 14217
scalar FogSequentialForward.fog[10].server[0] droppedJobsQueue 960
scalar FogSequentialForward.fog[10].server[0] droppedJobsTimout 0
scalar FogSequentialForward.fog[10].server[0] droppedJobsSLA 8498
scalar FogSequentialForward.fog[10].server[0] droppedJobsTotal 9458
scalar FogSequentialForward.fog[11].dispatcher localJobs 14206
scalar FogSequentialForward.fog[11].dispatcher internalJobs 14507
scalar FogSequentialForward.fog[11].dispatcher externalJobs 3450464
scalar FogSequentialForward.fog[11].dispatcher remoteJobs 3450532
scalar FogSequentialForward.fog[11].dispatcher probeQueries 0
scalar FogSequentialForward.fog[11].dispatcher probeAnswers 0
scalar FogSequentialForward.fog[11].dispatcher droppedJobsSLA 233
scalar FogSequentialForward.fog[11].dispatcher jobs_class_1 3464971
scalar FogSequentialForward.fog[11].dispatcher remoteJobs_class_1 3450532
scalar FogSequentialForward.fog[11].dispatcher localJobs_class_1 14206
scalar FogSequentialForward.fog[11].dispatcher droppedJobsSLA_class_1 233
scalar FogSequentialForward.fog[11].server[0] rho 1
scalar FogSequentialForward.fog[11].server[0] congestionRatio 0
scalar FogSequentialForward.fog[11].server[0] totalJobs 14206
scalar FogSequentialForward.fog[11].server[0] droppedJobsQueue 955
scalar FogSequentialForward.fog[11].server[0] droppedJobsTimout 0
scalar FogSequentialForward.fog[11].server[0] droppedJobsSLA 8548
scalar FogSequentialForward.fog[11].server[0] droppedJobsTotal 9503
scalar FogSequentialForward.fog[12].dispatcher localJobs 14202
scalar FogSequentialForward.fog[12].dispatcher internalJobs 14269
scalar FogSequentialForward.fog[12].dispatcher externalJobs 3446829
scalar FogSequentialForward.fog[12].dispatcher remoteJobs 3446673
scalar FogSequentialForward.fog[12].dispatcher probeQueries 0
scalar FogSequentialForward.fog[12].dispatcher probeAnswers 0
scalar FogSequentialForward.fog[12].dispatcher droppedJobsSLA 223
scalar FogSequentialForward.fog[12].dispatcher jobs_class_1 3461098
scalar FogSequentialForward.fog[12].dispatcher remoteJobs_class_1 3446673
scalar FogSequentialForward.fog[12].dispatcher localJobs_class_1 14202
scalar FogSequentialForward.fog[12].dispatcher droppedJobsSLA_class_1 223
scalar FogSequentialForward.fog[12].server[0] rho 0.99996852874756
scalar FogSequentialForward.fog[12].server[0] congestionRatio 0
scalar FogSequentialForward.fog[12].server[0] totalJobs 14202
scalar FogSequentialForward.fog[12].server[0] droppedJobsQueue 959
scalar FogSequentialForward.fog[12].server[0] droppedJobsTimout 0
scalar FogSequentialForward.fog[12].server[0] droppedJobsSLA 8529
scalar FogSequentialForward.fog[12].server[0] droppedJobsTotal 9488
scalar FogSequentialForward.fog[13].dispatcher localJobs 14248
scalar FogSequentialForward.fog[13].dispatcher internalJobs 14307
scalar FogSequentialForward.fog[13].dispatcher externalJobs 3449823
scalar FogSequentialForward.fog[13].dispatcher remoteJobs 3449656
scalar FogSequentialForward.fog[13].dispatcher probeQueries 0
scalar FogSequentialForward.fog[13].dispatcher probeAnswers 0
scalar FogSequentialForward.fog[13].dispatcher droppedJobsSLA 226
scalar FogSequentialForward.fog[13].dispatcher jobs_class_1 3464130
scalar FogSequentialForward.fog[13].dispatcher remoteJobs_class_1 3449656
scalar FogSequentialForward.fog[13].dispatcher localJobs_class_1 14248
scalar FogSequentialForward.fog[13].dispatcher droppedJobsSLA_class_1 226
scalar FogSequentialForward.fog[13].server[0] rho 0.99999994039536
scalar FogSequentialForward.fog[13].server[0] congestionRatio 0
scalar FogSequentialForward.fog[13].server[0] totalJobs 14248
scalar FogSequentialForward.fog[13].server[0] droppedJobsQueue 961
scalar FogSequentialForward.fog[13].server[0] droppedJobsTimout 0
scalar FogSequentialForward.fog[13].server[0] droppedJobsSLA 8552
scalar FogSequentialForward.fog[13].server[0] droppedJobsTotal 9513
scalar FogSequentialForward.fog[14].dispatcher localJobs 14174
scalar FogSequentialForward.fog[14].dispatcher internalJobs 14815
scalar FogSequentialForward.fog[14].dispatcher externalJobs 3449934
scalar FogSequentialForward.fog[14].dispatcher remoteJobs 3450340
scalar FogSequentialForward.fog[14].dispatcher probeQueries 0
scalar FogSequentialForward.fog[14].dispatcher probeAnswers 0
scalar FogSequentialForward.fog[14].dispatcher droppedJobsSLA 235
scalar FogSequentialForward.fog[14].dispatcher jobs_class_1 3464749
scalar FogSequentialForward.fog[14].dispatcher remoteJobs_class_1 3450340
scalar FogSequentialForward.fog[14].dispatcher localJobs_class_1 14174
scalar FogSequentialForward.fog[14].dispatcher droppedJobsSLA_class_1 235
scalar FogSequentialForward.fog[14].server[0] rho 1
scalar FogSequentialForward.fog[14].server[0] congestionRatio 0
scalar FogSequentialForward.fog[14].server[0] totalJobs 14174
scalar FogSequentialForward.fog[14].server[0] droppedJobsQueue 957
scalar FogSequentialForward.fog[14].server[0] droppedJobsTimout 0
scalar FogSequentialForward.fog[14].server[0] droppedJobsSLA 8477
scalar FogSequentialForward.fog[14].server[0] droppedJobsTotal 9434
scalar FogSequentialForward.fog[15].dispatcher localJobs 14204
scalar FogSequentialForward.fog[15].dispatcher internalJobs 14496
scalar FogSequentialForward.fog[15].dispatcher externalJobs 3450579
scalar FogSequentialForward.fog[15].dispatcher remoteJobs 3450625
scalar FogSequentialForward.fog[15].dispatcher probeQueries 0
scalar FogSequentialForward.fog[15].dispatcher probeAnswers 0
scalar FogSequentialForward.fog[15].dispatcher droppedJobsSLA 246
scalar FogSequentialForward.fog[15].dispatcher jobs_class_1 3465075
scalar FogSequentialForward.fog[15].dispatcher remoteJobs_class_1 3450625
scalar FogSequentialForward.fog[15].dispatcher localJobs_class_1 14204
scalar FogSequentialForward.fog[15].dispatcher droppedJobsSLA_class_1 246
scalar FogSequentialForward.fog[15].server[0] rho 1
scalar FogSequentialForward.fog[15].server[0] congestionRatio 0
scalar FogSequentialForward.fog[15].server[0] totalJobs 14204
scalar FogSequentialForward.fog[15].server[0] droppedJobsQueue 962
scalar FogSequentialForward.fog[15].server[0] droppedJobsTimout 0
scalar FogSequentialForward.fog[15].server[0] droppedJobsSLA 8535
scalar FogSequentialForward.fog[15].server[0] droppedJobsTotal 9497
scalar FogSequentialForward.fog[16].dispatcher localJobs 14205
scalar FogSequentialForward.fog[16].dispatcher internalJobs 14472
scalar FogSequentialForward.fog[16].dispatcher externalJobs 3450625
scalar FogSequentialForward.fog[16].dispatcher remoteJobs 3450641
scalar FogSequentialForward.fog[16].dispatcher probeQueries 0
scalar FogSequentialForward.fog[16].dispatcher probeAnswers 0
scalar FogSequentialForward.fog[16].dispatcher droppedJobsSLA 251
scalar FogSequentialForward.fog[16].dispatcher jobs_class_1 3465097
scalar FogSequentialForward.fog[16].dispatcher remoteJobs_class_1 3450641
scalar FogSequentialForward.fog[16].dispatcher localJobs_class_1 14205
scalar FogSequentialForward.fog[16].dispatcher droppedJobsSLA_class_1 251
scalar FogSequentialForward.fog[16].server[0] rho 1
scalar FogSequentialForward.fog[16].server[0] congestionRatio 0
scalar FogSequentialForward.fog[16].server[0] totalJobs 14205
scalar FogSequentialForward.fog[16].server[0] droppedJobsQueue 959
scalar FogSequentialForward.fog[16].server[0] droppedJobsTimout 0
scalar FogSequentialForward.fog[16].server[0] droppedJobsSLA 8536
scalar FogSequentialForward.fog[16].server[0] droppedJobsTotal 9495
scalar FogSequentialForward.fog[17].dispatcher localJobs 14187
scalar FogSequentialForward.fog[17].dispatcher internalJobs 14241
scalar FogSequentialForward.fog[17].dispatcher externalJobs 3447434
scalar FogSequentialForward.fog[17].dispatcher remoteJobs 3447259
scalar FogSequentialForward.fog[17].dispatcher probeQueries 0
scalar FogSequentialForward.fog[17].dispatcher probeAnswers 0
scalar FogSequentialForward.fog[17].dispatcher droppedJobsSLA 229
scalar FogSequentialForward.fog[17].dispatcher jobs_class_1 3461675
scalar FogSequentialForward.fog[17].dispatcher remoteJobs_class_1 3447259
scalar FogSequentialForward.fog[17].dispatcher localJobs_class_1 14187
scalar FogSequentialForward.fog[17].dispatcher droppedJobsSLA_class_1 229
scalar FogSequentialForward.fog[17].server[0] rho 0.99999988079071
scalar FogSequentialForward.fog[17].server[0] congestionRatio 0
scalar FogSequentialForward.fog[17].server[0] totalJobs 14187
scalar FogSequentialForward.fog[17].server[0] droppedJobsQueue 959
scalar FogSequentialForward.fog[17].server[0] droppedJobsTimout 0
scalar FogSequentialForward.fog[17].server[0] droppedJobsSLA 8477
scalar FogSequentialForward.fog[17].server[0] droppedJobsTotal 9436
scalar FogSequentialForward.fog[18].dispatcher localJobs 14165
scalar FogSequentialForward.fog[18].dispatcher internalJobs 14488
scalar FogSequentialForward.fog[18].dispatcher externalJobs 3447820
scalar FogSequentialForward.fog[18].dispatcher remoteJobs 3447910
scalar FogSequentialForward.fog[18].dispatcher probeQueries 0
scalar FogSequentialForward.fog[18].dispatcher probeAnswers 0
scalar FogSequentialForward.fog[18].dispatcher droppedJobsSLA 233
scalar FogSequentialForward.fog[18].dispatcher jobs_class_1 3462308
scalar FogSequentialForward.fog[18].dispatcher remoteJobs_class_1 3447910
scalar FogSequentialForward.fog[18].dispatcher localJobs_class_1 14165
scalar FogSequentialForward.fog[18].dispatcher droppedJobsSLA_class_1 233
scalar FogSequentialForward.fog[18].server[0] rho 1
scalar FogSequentialForward.fog[18].server[0] congestionRatio 0
scalar FogSequentialForward.fog[18].server[0] totalJobs 14165
scalar FogSequentialForward.fog[18].server[0] droppedJobsQueue 957
scalar FogSequentialForward.fog[18].server[0] droppedJobsTimout 0
scalar FogSequentialForward.fog[18].server[0] droppedJobsSLA 8501
scalar FogSequentialForward.fog[18].server[0] droppedJobsTotal 9458
scalar FogSequentialForward.fog[19].dispatcher localJobs 14222
scalar FogSequentialForward.fog[19].dispatcher internalJobs 14485
scalar FogSequentialForward.fog[19].dispatcher externalJobs 3448027
scalar FogSequentialForward.fog[19].dispatcher remoteJobs 3448042
scalar FogSequentialForward.fog[19].dispatcher probeQueries 0
scalar FogSequentialForward.fog[19].dispatcher probeAnswers 0
scalar FogSequentialForward.fog[19].dispatcher droppedJobsSLA 248
scalar FogSequentialForward.fog[19].dispatcher jobs_class_1 3462512
scalar FogSequentialForward.fog[19].dispatcher remoteJobs_class_1 3448042
scalar FogSequentialForward.fog[19].dispatcher localJobs_class_1 14222
scalar FogSequentialForward.fog[19].dispatcher droppedJobsSLA_class_1 248
scalar FogSequentialForward.fog[19].server[0] rho 1
scalar FogSequentialForward.fog[19].server[0] congestionRatio 0
scalar FogSequentialForward.fog[19].server[0] totalJobs 14222
scalar FogSequentialForward.fog[19].server[0] droppedJobsQueue 963
scalar FogSequentialForward.fog[19].server[0] droppedJobsTimout 0
scalar FogSequentialForward.fog[19].server[0] droppedJobsSLA 8509
scalar FogSequentialForward.fog[19].server[0] droppedJobsTotal 9472
scalar FogSequentialForward.fog[20].dispatcher localJobs 14225
scalar FogSequentialForward.fog[20].dispatcher internalJobs 14334
scalar FogSequentialForward.fog[20].dispatcher externalJobs 3447749
scalar FogSequentialForward.fog[20].dispatcher remoteJobs 3447626
scalar FogSequentialForward.fog[20].dispatcher probeQueries 0
scalar FogSequentialForward.fog[20].dispatcher probeAnswers 0
scalar FogSequentialForward.fog[20].dispatcher droppedJobsSLA 232
scalar FogSequentialForward.fog[20].dispatcher jobs_class_1 3462083
scalar FogSequentialForward.fog[20].dispatcher remoteJobs_class_1 3447626
scalar FogSequentialForward.fog[20].dispatcher localJobs_class_1 14225
scalar FogSequentialForward.fog[20].dispatcher droppedJobsSLA_class_1 232
scalar FogSequentialForward.fog[20].server[0] rho 0.99999970197678
scalar FogSequentialForward.fog[20].server[0] congestionRatio 0
scalar FogSequentialForward.fog[20].server[0] totalJobs 14225
scalar FogSequentialForward.fog[20].server[0] droppedJobsQueue 962
scalar FogSequentialForward.fog[20].server[0] droppedJobsTimout 0
scalar FogSequentialForward.fog[20].server[0] droppedJobsSLA 8530
scalar FogSequentialForward.fog[20].server[0] droppedJobsTotal 9492
scalar FogSequentialForward.fog[21].dispatcher localJobs 14169
scalar FogSequentialForward.fog[21].dispatcher internalJobs 14584
scalar FogSequentialForward.fog[21].dispatcher externalJobs 3450545
scalar FogSequentialForward.fog[21].dispatcher remoteJobs 3450730
scalar FogSequentialForward.fog[21].dispatcher probeQueries 0
scalar FogSequentialForward.fog[21].dispatcher probeAnswers 0
scalar FogSequentialForward.fog[21].dispatcher droppedJobsSLA 230
scalar FogSequentialForward.fog[21].dispatcher jobs_class_1 3465129
scalar FogSequentialForward.fog[21].dispatcher remoteJobs_class_1 3450730
scalar FogSequentialForward.fog[21].dispatcher localJobs_class_1 14169
scalar FogSequentialForward.fog[21].dispatcher droppedJobsSLA_class_1 230
scalar FogSequentialForward.fog[21].server[0] rho 1
scalar FogSequentialForward.fog[21].server[0] congestionRatio 0
scalar FogSequentialForward.fog[21].server[0] totalJobs 14169
scalar FogSequentialForward.fog[21].server[0] droppedJobsQueue 956
scalar FogSequentialForward.fog[21].server[0] droppedJobsTimout 0
scalar FogSequentialForward.fog[21].server[0] droppedJobsSLA 8446
scalar FogSequentialForward.fog[21].server[0] droppedJobsTotal 9402
scalar FogSequentialForward.fog[22].dispatcher localJobs 14230
scalar FogSequentialForward.fog[22].dispatcher internalJobs 14557
scalar FogSequentialForward.fog[22].dispatcher externalJobs 3449651
scalar FogSequentialForward.fog[22].dispatcher remoteJobs 3449751
scalar FogSequentialForward.fog[22].dispatcher probeQueries 0
scalar FogSequentialForward.fog[22].dispatcher probeAnswers 0
scalar FogSequentialForward.fog[22].dispatcher droppedJobsSLA 227
scalar FogSequentialForward.fog[22].dispatcher jobs_class_1 3464208
scalar FogSequentialForward.fog[22].dispatcher remoteJobs_class_1 3449751
scalar FogSequentialForward.fog[22].dispatcher localJobs_class_1 14230
scalar FogSequentialForward.fog[22].dispatcher droppedJobsSLA_class_1 227
scalar FogSequentialForward.fog[22].server[0] rho 1
scalar FogSequentialForward.fog[22].server[0] congestionRatio 0
scalar FogSequentialForward.fog[22].server[0] totalJobs 14230
scalar FogSequentialForward.fog[22].server[0] droppedJobsQueue 963
scalar FogSequentialForward.fog[22].server[0] droppedJobsTimout 0
scalar FogSequentialForward.fog[22].server[0] droppedJobsSLA 8522
scalar FogSequentialForward.fog[22].server[0] droppedJobsTotal 9485
scalar FogSequentialForward.fog[23].dispatcher localJobs 14239
scalar FogSequentialForward.fog[23].dispatcher internalJobs 14286
scalar FogSequentialForward.fog[23].dispatcher externalJobs 3451215
scalar FogSequentialForward.fog[23].dispatcher remoteJobs 3451056
scalar FogSequentialForward.fog[23].dispatcher probeQueries 0
scalar FogSequentialForward.fog[23].dispatcher probeAnswers 0
scalar FogSequentialForward.fog[23].dispatcher droppedJobsSLA 206
scalar FogSequentialForward.fog[23].dispatcher jobs_class_1 3465501
scalar FogSequentialForward.fog[23].dispatcher remoteJobs_class_1 3451056
scalar FogSequentialForward.fog[23].dispatcher localJobs_class_1 14239
scalar FogSequentialForward.fog[23].dispatcher droppedJobsSLA_class_1 206
scalar FogSequentialForward.fog[23].server[0] rho 0.9999058842659
scalar FogSequentialForward.fog[23].server[0] congestionRatio 0
scalar FogSequentialForward.fog[23].server[0] totalJobs 14239
scalar FogSequentialForward.fog[23].server[0] droppedJobsQueue 959
scalar FogSequentialForward.fog[23].server[0] droppedJobsTimout 0
scalar FogSequentialForward.fog[23].server[0] droppedJobsSLA 8546
scalar FogSequentialForward.fog[23].server[0] droppedJobsTotal 9505
scalar FogSequentialForward.fog[24].dispatcher localJobs 14246
scalar FogSequentialForward.fog[24].dispatcher internalJobs 14436
scalar FogSequentialForward.fog[24].dispatcher externalJobs 3451688
scalar FogSequentialForward.fog[24].dispatcher remoteJobs 3451666
scalar FogSequentialForward.fog[24].dispatcher probeQueries 0
scalar FogSequentialForward.fog[24].dispatcher probeAnswers 0
scalar FogSequentialForward.fog[24].dispatcher droppedJobsSLA 212
scalar FogSequentialForward.fog[24].dispatcher jobs_class_1 3466124
scalar FogSequentialForward.fog[24].dispatcher remoteJobs_class_1 3451666
scalar FogSequentialForward.fog[24].dispatcher localJobs_class_1 14246
scalar FogSequentialForward.fog[24].dispatcher droppedJobsSLA_class_1 212
scalar FogSequentialForward.fog[24].server[0] rho 1
scalar FogSequentialForward.fog[24].server[0] congestionRatio 0
scalar FogSequentialForward.fog[24].server[0] totalJobs 14246
scalar FogSequentialForward.fog[24].server[0] droppedJobsQueue 957
scalar FogSequentialForward.fog[24].server[0] droppedJobsTimout 0
scalar FogSequentialForward.fog[24].server[0] droppedJobsSLA 8504
scalar FogSequentialForward.fog[24].server[0] droppedJobsTotal 9461
scalar FogSequentialForward.fog[25].dispatcher localJobs 14106
scalar FogSequentialForward.fog[25].dispatcher internalJobs 14610
scalar FogSequentialForward.fog[25].dispatcher externalJobs 3449118
scalar FogSequentialForward.fog[25].dispatcher remoteJobs 3449381
scalar FogSequentialForward.fog[25].dispatcher probeQueries 0
scalar FogSequentialForward.fog[25].dispatcher probeAnswers 0
scalar FogSequentialForward.fog[25].dispatcher droppedJobsSLA 241
scalar FogSequentialForward.fog[25].dispatcher jobs_class_1 3463728
scalar FogSequentialForward.fog[25].dispatcher remoteJobs_class_1 3449381
scalar FogSequentialForward.fog[25].dispatcher localJobs_class_1 14106
scalar FogSequentialForward.fog[25].dispatcher droppedJobsSLA_class_1 241
scalar FogSequentialForward.fog[25].server[0] rho 1
scalar FogSequentialForward.fog[25].server[0] congestionRatio 0
scalar FogSequentialForward.fog[25].server[0] totalJobs 14106
scalar FogSequentialForward.fog[25].server[0] droppedJobsQueue 953
scalar FogSequentialForward.fog[25].server[0] droppedJobsTimout 0
scalar FogSequentialForward.fog[25].server[0] droppedJobsSLA 8449
scalar FogSequentialForward.fog[25].server[0] droppedJobsTotal 9402
scalar FogSequentialForward.fog[26].dispatcher localJobs 14209
scalar FogSequentialForward.fog[26].dispatcher internalJobs 14495
scalar FogSequentialForward.fog[26].dispatcher externalJobs 3452032
scalar FogSequentialForward.fog[26].dispatcher remoteJobs 3452079
scalar FogSequentialForward.fog[26].dispatcher probeQueries 0
scalar FogSequentialForward.fog[26].dispatcher probeAnswers 0
scalar FogSequentialForward.fog[26].dispatcher droppedJobsSLA 239
scalar FogSequentialForward.fog[26].dispatcher jobs_class_1 3466527
scalar FogSequentialForward.fog[26].dispatcher remoteJobs_class_1 3452079
scalar FogSequentialForward.fog[26].dispatcher localJobs_class_1 14209
scalar FogSequentialForward.fog[26].dispatcher droppedJobsSLA_class_1 239
scalar FogSequentialForward.fog[26].server[0] rho 0.99992626905441
scalar FogSequentialForward.fog[26].server[0] congestionRatio 0
scalar FogSequentialForward.fog[26].server[0] totalJobs 14209
scalar FogSequentialForward.fog[26].server[0] droppedJobsQueue 960
scalar FogSequentialForward.fog[26].server[0] droppedJobsTimout 0
scalar FogSequentialForward.fog[26].server[0] droppedJobsSLA 8490
scalar FogSequentialForward.fog[26].server[0] droppedJobsTotal 9450
scalar FogSequentialForward.fog[27].dispatcher localJobs 14269
scalar FogSequentialForward.fog[27].dispatcher internalJobs 14327
scalar FogSequentialForward.fog[27].dispatcher externalJobs 3449230
scalar FogSequentialForward.fog[27].dispatcher remoteJobs 3449074
scalar FogSequentialForward.fog[27].dispatcher probeQueries 0
scalar FogSequentialForward.fog[27].dispatcher probeAnswers 0
scalar FogSequentialForward.fog[27].dispatcher droppedJobsSLA 214
scalar FogSequentialForward.fog[27].dispatcher jobs_class_1 3463557
scalar FogSequentialForward.fog[27].dispatcher remoteJobs_class_1 3449074
scalar FogSequentialForward.fog[27].dispatcher localJobs_class_1 14269
scalar FogSequentialForward.fog[27].dispatcher droppedJobsSLA_class_1 214
scalar FogSequentialForward.fog[27].server[0] rho 0.99999994039536
scalar FogSequentialForward.fog[27].server[0] congestionRatio 0
scalar FogSequentialForward.fog[27].server[0] totalJobs 14269
scalar FogSequentialForward.fog[27].server[0] droppedJobsQueue 961
scalar FogSequentialForward.fog[27].server[0] droppedJobsTimout 0
scalar FogSequentialForward.fog[27].server[0] droppedJobsSLA 8621
scalar FogSequentialForward.fog[27].server[0] droppedJobsTotal 9582
scalar FogSequentialForward.fog[28].dispatcher localJobs 14239
scalar FogSequentialForward.fog[28].dispatcher internalJobs 14529
scalar FogSequentialForward.fog[28].dispatcher externalJobs 3450731
scalar FogSequentialForward.fog[28].dispatcher remoteJobs 3450776
scalar FogSequentialForward.fog[28].dispatcher probeQueries 0
scalar FogSequentialForward.fog[28].dispatcher probeAnswers 0
scalar FogSequentialForward.fog[28].dispatcher droppedJobsSLA 245
scalar FogSequentialForward.fog[28].dispatcher jobs_class_1 3465260
scalar FogSequentialForward.fog[28].dispatcher remoteJobs_class_1 3450776
scalar FogSequentialForward.fog[28].dispatcher localJobs_class_1 14239
scalar FogSequentialForward.fog[28].dispatcher droppedJobsSLA_class_1 245
scalar FogSequentialForward.fog[28].server[0] rho 1
scalar FogSequentialForward.fog[28].server[0] congestionRatio 0
scalar FogSequentialForward.fog[28].server[0] totalJobs 14239
scalar FogSequentialForward.fog[28].server[0] droppedJobsQueue 961
scalar FogSequentialForward.fog[28].server[0] droppedJobsTimout 0
scalar FogSequentialForward.fog[28].server[0] droppedJobsSLA 8527
scalar FogSequentialForward.fog[28].server[0] droppedJobsTotal 9488
scalar FogSequentialForward.fog[29].dispatcher localJobs 14185
scalar FogSequentialForward.fog[29].dispatcher internalJobs 14537
scalar FogSequentialForward.fog[29].dispatcher externalJobs 3451954
scalar FogSequentialForward.fog[29].dispatcher remoteJobs 3452063
scalar FogSequentialForward.fog[29].dispatcher probeQueries 0
scalar FogSequentialForward.fog[29].dispatcher probeAnswers 0
scalar FogSequentialForward.fog[29].dispatcher droppedJobsSLA 243
scalar FogSequentialForward.fog[29].dispatcher jobs_class_1 3466491
scalar FogSequentialForward.fog[29].dispatcher remoteJobs_class_1 3452063
scalar FogSequentialForward.fog[29].dispatcher localJobs_class_1 14185
scalar FogSequentialForward.fog[29].dispatcher droppedJobsSLA_class_1 243
scalar FogSequentialForward.fog[29].server[0] rho 0.99999964237213
scalar FogSequentialForward.fog[29].server[0] congestionRatio 0
scalar FogSequentialForward.fog[29].server[0] totalJobs 14185
scalar FogSequentialForward.fog[29].server[0] droppedJobsQueue 957
scalar FogSequentialForward.fog[29].server[0] droppedJobsTimout 0
scalar FogSequentialForward.fog[29].server[0] droppedJobsSLA 8460
scalar FogSequentialForward.fog[29].server[0] droppedJobsTotal 9417
scalar FogSequentialForward.fog[30].dispatcher localJobs 14232
scalar FogSequentialForward.fog[30].dispatcher internalJobs 14554
scalar FogSequentialForward.fog[30].dispatcher externalJobs 3445196
scalar FogSequentialForward.fog[30].dispatcher remoteJobs 3445285
scalar FogSequentialForward.fog[30].dispatcher probeQueries 0
scalar FogSequentialForward.fog[30].dispatcher probeAnswers 0
scalar FogSequentialForward.fog[30].dispatcher droppedJobsSLA 233
scalar FogSequentialForward.fog[30].dispatcher jobs_class_1 3459750
scalar FogSequentialForward.fog[30].dispatcher remoteJobs_class_1 3445285
scalar FogSequentialForward.fog[30].dispatcher localJobs_class_1 14232
scalar FogSequentialForward.fog[30].dispatcher droppedJobsSLA_class_1 233
scalar FogSequentialForward.fog[30].server[0] rho 1
scalar FogSequentialForward.fog[30].server[0] congestionRatio 0
scalar FogSequentialForward.fog[30].server[0] totalJobs 14232
scalar FogSequentialForward.fog[30].server[0] droppedJobsQueue 962
scalar FogSequentialForward.fog[30].server[0] droppedJobsTimout 0
scalar FogSequentialForward.fog[30].server[0] droppedJobsSLA 8519
scalar FogSequentialForward.fog[30].server[0] droppedJobsTotal 9481
scalar FogSequentialForward.fog[31].dispatcher localJobs 14136
scalar FogSequentialForward.fog[31].dispatcher internalJobs 14428
scalar FogSequentialForward.fog[31].dispatcher externalJobs 3448737
scalar FogSequentialForward.fog[31].dispatcher remoteJobs 3448810
scalar FogSequentialForward.fog[31].dispatcher probeQueries 0
scalar FogSequentialForward.fog[31].dispatcher probeAnswers 0
scalar FogSequentialForward.fog[31].dispatcher droppedJobsSLA 219
scalar FogSequentialForward.fog[31].dispatcher jobs_class_1 3463165
scalar FogSequentialForward.fog[31].dispatcher remoteJobs_class_1 3448810
scalar FogSequentialForward.fog[31].dispatcher localJobs_class_1 14136
scalar FogSequentialForward.fog[31].dispatcher droppedJobsSLA_class_1 219
scalar FogSequentialForward.fog[31].server[0] rho 0.99999988079071
scalar FogSequentialForward.fog[31].server[0] congestionRatio 0
scalar FogSequentialForward.fog[31].server[0] totalJobs 14136
scalar FogSequentialForward.fog[31].server[0] droppedJobsQueue 952
scalar FogSequentialForward.fog[31].server[0] droppedJobsTimout 0
scalar FogSequentialForward.fog[31].server[0] droppedJobsSLA 8463
scalar FogSequentialForward.fog[31].server[0] droppedJobsTotal 9415
scalar FogSequentialForward.fog[32].dispatcher localJobs 14238
scalar FogSequentialForward.fog[32].dispatcher internalJobs 14255
scalar FogSequentialForward.fog[32].dispatcher externalJobs 3449080
scalar FogSequentialForward.fog[32].dispatcher remoteJobs 3448848
scalar FogSequentialForward.fog[32].dispatcher probeQueries 0
scalar FogSequentialForward.fog[32].dispatcher probeAnswers 0
scalar FogSequentialForward.fog[32].dispatcher droppedJobsSLA 249
scalar FogSequentialForward.fog[32].dispatcher jobs_class_1 3463335
scalar FogSequentialForward.fog[32].dispatcher remoteJobs_class_1 3448848
scalar FogSequentialForward.fog[32].dispatcher localJobs_class_1 14238
scalar FogSequentialForward.fog[32].dispatcher droppedJobsSLA_class_1 249
scalar FogSequentialForward.fog[32].server[0] rho 0.99994099140167
scalar FogSequentialForward.fog[32].server[0] congestionRatio 0
scalar FogSequentialForward.fog[32].server[0] totalJobs 14238
scalar FogSequentialForward.fog[32].server[0] droppedJobsQueue 962
scalar FogSequentialForward.fog[32].server[0] droppedJobsTimout 0
scalar FogSequentialForward.fog[32].server[0] droppedJobsSLA 8507
scalar FogSequentialForward.fog[32].server[0] droppedJobsTotal 9469
scalar FogSequentialForward.fog[33].dispatcher localJobs 14202
scalar FogSequentialForward.fog[33].dispatcher internalJobs 14572
scalar FogSequentialForward.fog[33].dispatcher externalJobs 3447972
scalar FogSequentialForward.fog[33].dispatcher remoteJobs 3448111
scalar FogSequentialForward.fog[33].dispatcher probeQueries 0
scalar FogSequentialForward.fog[33].dispatcher probeAnswers 0
scalar FogSequentialForward.fog[33].dispatcher droppedJobsSLA 231
scalar FogSequentialForward.fog[33].dispatcher jobs_class_1 3462544
scalar FogSequentialForward.fog[33].dispatcher remoteJobs_class_1 3448111
scalar FogSequentialForward.fog[33].dispatcher localJobs_class_1 14202
scalar FogSequentialForward.fog[33].dispatcher droppedJobsSLA_class_1 231
scalar FogSequentialForward.fog[33].server[0] rho 0.99999994039536
scalar FogSequentialForward.fog[33].server[0] congestionRatio 0
scalar FogSequentialForward.fog[33].server[0] totalJobs 14202
scalar FogSequentialForward.fog[33].server[0] droppedJobsQueue 957
scalar FogSequentialForward.fog[33].server[0] droppedJobsTimout 0
scalar FogSequentialForward.fog[33].server[0] droppedJobsSLA 8493
scalar FogSequentialForward.fog[33].server[0] droppedJobsTotal 9450
scalar FogSequentialForward.fog[34].dispatcher localJobs 14217
scalar FogSequentialForward.fog[34].dispatcher internalJobs 14253
scalar FogSequentialForward.fog[34].dispatcher externalJobs 3450852
scalar FogSequentialForward.fog[34].dispatcher remoteJobs 3450635
scalar FogSequentialForward.fog[34].dispatcher probeQueries 0
scalar FogSequentialForward.fog[34].dispatcher probeAnswers 0
scalar FogSequentialForward.fog[34].dispatcher droppedJobsSLA 253
scalar FogSequentialForward.fog[34].dispatcher jobs_class_1 3465105
scalar FogSequentialForward.fog[34].dispatcher remoteJobs_class_1 3450635
scalar FogSequentialForward.fog[34].dispatcher localJobs_class_1 14217
scalar FogSequentialForward.fog[34].dispatcher droppedJobsSLA_class_1 253
scalar FogSequentialForward.fog[34].server[0] rho 0.99999958276749
scalar FogSequentialForward.fog[34].server[0] congestionRatio 0
scalar FogSequentialForward.fog[34].server[0] totalJobs 14217
scalar FogSequentialForward.fog[34].server[0] droppedJobsQueue 959
scalar FogSequentialForward.fog[34].server[0] droppedJobsTimout 0
scalar FogSequentialForward.fog[34].server[0] droppedJobsSLA 8578
scalar FogSequentialForward.fog[34].server[0] droppedJobsTotal 9537
scalar FogSequentialForward.fog[35].dispatcher localJobs 14164
scalar FogSequentialForward.fog[35].dispatcher internalJobs 14474
scalar FogSequentialForward.fog[35].dispatcher externalJobs 3452752
scalar FogSequentialForward.fog[35].dispatcher remoteJobs 3452805
scalar FogSequentialForward.fog[35].dispatcher probeQueries 0
scalar FogSequentialForward.fog[35].dispatcher probeAnswers 0
scalar FogSequentialForward.fog[35].dispatcher droppedJobsSLA 257
scalar FogSequentialForward.fog[35].dispatcher jobs_class_1 3467226
scalar FogSequentialForward.fog[35].dispatcher remoteJobs_class_1 3452805
scalar FogSequentialForward.fog[35].dispatcher localJobs_class_1 14164
scalar FogSequentialForward.fog[35].dispatcher droppedJobsSLA_class_1 257
scalar FogSequentialForward.fog[35].server[0] rho 0.99999988079071
scalar FogSequentialForward.fog[35].server[0] congestionRatio 0
scalar FogSequentialForward.fog[35].server[0] totalJobs 14164
scalar FogSequentialForward.fog[35].server[0] droppedJobsQueue 956
scalar FogSequentialForward.fog[35].server[0] droppedJobsTimout 0
scalar FogSequentialForward.fog[35].server[0] droppedJobsSLA 8484
scalar FogSequentialForward.fog[35].server[0] droppedJobsTotal 9440
scalar FogSequentialForward.fog[36].dispatcher localJobs 14159
scalar FogSequentialForward.fog[36].dispatcher internalJobs 14572
scalar FogSequentialForward.fog[36].dispatcher externalJobs 3453388
scalar FogSequentialForward.fog[36].dispatcher remoteJobs 3453564
scalar FogSequentialForward.fog[36].dispatcher probeQueries 0
scalar FogSequentialForward.fog[36].dispatcher probeAnswers 0
scalar FogSequentialForward.fog[36].dispatcher droppedJobsSLA 237
scalar FogSequentialForward.fog[36].dispatcher jobs_class_1 3467960
scalar FogSequentialForward.fog[36].dispatcher remoteJobs_class_1 3453564
scalar FogSequentialForward.fog[36].dispatcher localJobs_class_1 14159
scalar FogSequentialForward.fog[36].dispatcher droppedJobsSLA_class_1 237
scalar FogSequentialForward.fog[36].server[0] rho 1
scalar FogSequentialForward.fog[36].server[0] congestionRatio 0
scalar FogSequentialForward.fog[36].server[0] totalJobs 14159
scalar FogSequentialForward.fog[36].server[0] droppedJobsQueue 955
scalar FogSequentialForward.fog[36].server[0] droppedJobsTimout 0
scalar FogSequentialForward.fog[36].server[0] droppedJobsSLA 8465
scalar FogSequentialForward.fog[36].server[0] droppedJobsTotal 9420
scalar FogSequentialForward.fog[37].dispatcher localJobs 14222
scalar FogSequentialForward.fog[37].dispatcher internalJobs 14278
scalar FogSequentialForward.fog[37].dispatcher externalJobs 3449535
scalar FogSequentialForward.fog[37].dispatcher remoteJobs 3449367
scalar FogSequentialForward.fog[37].dispatcher probeQueries 0
scalar FogSequentialForward.fog[37].dispatcher probeAnswers 0
scalar FogSequentialForward.fog[37].dispatcher droppedJobsSLA 224
scalar FogSequentialForward.fog[37].dispatcher jobs_class_1 3463813
scalar FogSequentialForward.fog[37].dispatcher remoteJobs_class_1 3449367
scalar FogSequentialForward.fog[37].dispatcher localJobs_class_1 14222
scalar FogSequentialForward.fog[37].dispatcher droppedJobsSLA_class_1 224
scalar FogSequentialForward.fog[37].server[0] rho 1
scalar FogSequentialForward.fog[37].server[0] congestionRatio 0
scalar FogSequentialForward.fog[37].server[0] totalJobs 14222
scalar FogSequentialForward.fog[37].server[0] droppedJobsQueue 961
scalar FogSequentialForward.fog[37].server[0] droppedJobsTimout 0
scalar FogSequentialForward.fog[37].server[0] droppedJobsSLA 8533
scalar FogSequentialForward.fog[37].server[0] droppedJobsTotal 9494
scalar FogSequentialForward.fog[38].dispatcher localJobs 14118
scalar FogSequentialForward.fog[38].dispatcher internalJobs 14521
scalar FogSequentialForward.fog[38].dispatcher externalJobs 3452741
scalar FogSequentialForward.fog[38].dispatcher remoteJobs 3452900
scalar FogSequentialForward.fog[38].dispatcher probeQueries 0
scalar FogSequentialForward.fog[38].dispatcher probeAnswers 0
scalar FogSequentialForward.fog[38].dispatcher droppedJobsSLA 244
scalar FogSequentialForward.fog[38].dispatcher jobs_class_1 3467262
scalar FogSequentialForward.fog[38].dispatcher remoteJobs_class_1 3452900
scalar FogSequentialForward.fog[38].dispatcher localJobs_class_1 14118
scalar FogSequentialForward.fog[38].dispatcher droppedJobsSLA_class_1 244
scalar FogSequentialForward.fog[38].server[0] rho 0.99978411197662
scalar FogSequentialForward.fog[38].server[0] congestionRatio 0
scalar FogSequentialForward.fog[38].server[0] totalJobs 14118
scalar FogSequentialForward.fog[38].server[0] droppedJobsQueue 953
scalar FogSequentialForward.fog[38].server[0] droppedJobsTimout 0
scalar FogSequentialForward.fog[38].server[0] droppedJobsSLA 8433
scalar FogSequentialForward.fog[38].server[0] droppedJobsTotal 9386
scalar FogSequentialForward.fog[39].dispatcher localJobs 14181
scalar FogSequentialForward.fog[39].dispatcher internalJobs 14528
scalar FogSequentialForward.fog[39].dispatcher externalJobs 3449989
scalar FogSequentialForward.fog[39].dispatcher remoteJobs 3450093
scalar FogSequentialForward.fog[39].dispatcher probeQueries 0
scalar FogSequentialForward.fog[39].dispatcher probeAnswers 0
scalar FogSequentialForward.fog[39].dispatcher droppedJobsSLA 243
scalar FogSequentialForward.fog[39].dispatcher jobs_class_1 3464517
scalar FogSequentialForward.fog[39].dispatcher remoteJobs_class_1 3450093
scalar FogSequentialForward.fog[39].dispatcher localJobs_class_1 14181
scalar FogSequentialForward.fog[39].dispatcher droppedJobsSLA_class_1 243
scalar FogSequentialForward.fog[39].server[0] rho 1
scalar FogSequentialForward.fog[39].server[0] congestionRatio 0
scalar FogSequentialForward.fog[39].server[0] totalJobs 14181
scalar FogSequentialForward.fog[39].server[0] droppedJobsQueue 959
scalar FogSequentialForward.fog[39].server[0] droppedJobsTimout 0
scalar FogSequentialForward.fog[39].server[0] droppedJobsSLA 8507
scalar FogSequentialForward.fog[39].server[0] droppedJobsTotal 9466
scalar FogSequentialForward.fog[40].dispatcher localJobs 14157
scalar FogSequentialForward.fog[40].dispatcher internalJobs 14429
scalar FogSequentialForward.fog[40].dispatcher externalJobs 3448496
scalar FogSequentialForward.fog[40].dispatcher remoteJobs 3448536
scalar FogSequentialForward.fog[40].dispatcher probeQueries 0
scalar FogSequentialForward.fog[40].dispatcher probeAnswers 0
scalar FogSequentialForward.fog[40].dispatcher droppedJobsSLA 232
scalar FogSequentialForward.fog[40].dispatcher jobs_class_1 3462925
scalar FogSequentialForward.fog[40].dispatcher remoteJobs_class_1 3448536
scalar FogSequentialForward.fog[40].dispatcher localJobs_class_1 14157
scalar FogSequentialForward.fog[40].dispatcher droppedJobsSLA_class_1 232
scalar FogSequentialForward.fog[40].server[0] rho 1
scalar FogSequentialForward.fog[40].server[0] congestionRatio 0
scalar FogSequentialForward.fog[40].server[0] totalJobs 14157
scalar FogSequentialForward.fog[40].server[0] droppedJobsQueue 958
scalar FogSequentialForward.fog[40].server[0] droppedJobsTimout 0
scalar FogSequentialForward.fog[40].server[0] droppedJobsSLA 8471
scalar FogSequentialForward.fog[40].server[0] droppedJobsTotal 9429
scalar FogSequentialForward.fog[41].dispatcher localJobs 14196
scalar FogSequentialForward.fog[41].dispatcher internalJobs 14332
scalar FogSequentialForward.fog[41].dispatcher externalJobs 3451323
scalar FogSequentialForward.fog[41].dispatcher remoteJobs 3451223
scalar FogSequentialForward.fog[41].dispatcher probeQueries 0
scalar FogSequentialForward.fog[41].dispatcher probeAnswers 0
scalar FogSequentialForward.fog[41].dispatcher droppedJobsSLA 236
scalar FogSequentialForward.fog[41].dispatcher jobs_class_1 3465655
scalar FogSequentialForward.fog[41].dispatcher remoteJobs_class_1 3451223
scalar FogSequentialForward.fog[41].dispatcher localJobs_class_1 14196
scalar FogSequentialForward.fog[41].dispatcher droppedJobsSLA_class_1 236
scalar FogSequentialForward.fog[41].server[0] rho 0.99999988079071
scalar FogSequentialForward.fog[41].server[0] congestionRatio 0
scalar FogSequentialForward.fog[41].server[0] totalJobs 14196
scalar FogSequentialForward.fog[41].server[0] droppedJobsQueue 960
scalar FogSequentialForward.fog[41].server[0] droppedJobsTimout 0
scalar FogSequentialForward.fog[41].server[0] droppedJobsSLA 8530
scalar FogSequentialForward.fog[41].server[0] droppedJobsTotal 9490
scalar FogSequentialForward.fog[42].dispatcher localJobs 14229
scalar FogSequentialForward.fog[42].dispatcher internalJobs 14308
scalar FogSequentialForward.fog[42].dispatcher externalJobs 3450982
scalar FogSequentialForward.fog[42].dispatcher remoteJobs 3450834
scalar FogSequentialForward.fog[42].dispatcher probeQueries 0
scalar FogSequentialForward.fog[42].dispatcher probeAnswers 0
scalar FogSequentialForward.fog[42].dispatcher droppedJobsSLA 227
scalar FogSequentialForward.fog[42].dispatcher jobs_class_1 3465290
scalar FogSequentialForward.fog[42].dispatcher remoteJobs_class_1 3450834
scalar FogSequentialForward.fog[42].dispatcher localJobs_class_1 14229
scalar FogSequentialForward.fog[42].dispatcher droppedJobsSLA_class_1 227
scalar FogSequentialForward.fog[42].server[0] rho 1
scalar FogSequentialForward.fog[42].server[0] congestionRatio 0
scalar FogSequentialForward.fog[42].server[0] totalJobs 14229
scalar FogSequentialForward.fog[42].server[0] droppedJobsQueue 959
scalar FogSequentialForward.fog[42].server[0] droppedJobsTimout 0
scalar FogSequentialForward.fog[42].server[0] droppedJobsSLA 8518
scalar FogSequentialForward.fog[42].server[0] droppedJobsTotal 9477
scalar FogSequentialForward.fog[43].dispatcher localJobs 14175
scalar FogSequentialForward.fog[43].dispatcher internalJobs 14456
scalar FogSequentialForward.fog[43].dispatcher externalJobs 3449112
scalar FogSequentialForward.fog[43].dispatcher remoteJobs 3449133
scalar FogSequentialForward.fog[43].dispatcher probeQueries 0
scalar FogSequentialForward.fog[43].dispatcher probeAnswers 0
scalar FogSequentialForward.fog[43].dispatcher droppedJobsSLA 260
scalar FogSequentialForward.fog[43].dispatcher jobs_class_1 3463568
scalar FogSequentialForward.fog[43].dispatcher remoteJobs_class_1 3449133
scalar FogSequentialForward.fog[43].dispatcher localJobs_class_1 14175
scalar FogSequentialForward.fog[43].dispatcher droppedJobsSLA_class_1 260
scalar FogSequentialForward.fog[43].server[0] rho 1
scalar FogSequentialForward.fog[43].server[0] congestionRatio 0
scalar FogSequentialForward.fog[43].server[0] totalJobs 14175
scalar FogSequentialForward.fog[43].server[0] droppedJobsQueue 958
scalar FogSequentialForward.fog[43].server[0] droppedJobsTimout 0
scalar FogSequentialForward.fog[43].server[0] droppedJobsSLA 8564
scalar FogSequentialForward.fog[43].server[0] droppedJobsTotal 9522
scalar FogSequentialForward.fog[44].dispatcher localJobs 14205
scalar FogSequentialForward.fog[44].dispatcher internalJobs 14554
scalar FogSequentialForward.fog[44].dispatcher externalJobs 3448547
scalar FogSequentialForward.fog[44].dispatcher remoteJobs 3448672
scalar FogSequentialForward.fog[44].dispatcher probeQueries 0
scalar FogSequentialForward.fog[44].dispatcher probeAnswers 0
scalar FogSequentialForward.fog[44].dispatcher droppedJobsSLA 224
scalar FogSequentialForward.fog[44].dispatcher jobs_class_1 3463101
scalar FogSequentialForward.fog[44].dispatcher remoteJobs_class_1 3448672
scalar FogSequentialForward.fog[44].dispatcher localJobs_class_1 14205
scalar FogSequentialForward.fog[44].dispatcher droppedJobsSLA_class_1 224
scalar FogSequentialForward.fog[44].server[0] rho 1
scalar FogSequentialForward.fog[44].server[0] congestionRatio 0
scalar FogSequentialForward.fog[44].server[0] totalJobs 14205
scalar FogSequentialForward.fog[44].server[0] droppedJobsQueue 960
scalar FogSequentialForward.fog[44].server[0] droppedJobsTimout 0
scalar FogSequentialForward.fog[44].server[0] droppedJobsSLA 8547
scalar FogSequentialForward.fog[44].server[0] droppedJobsTotal 9507
scalar FogSequentialForward.fog[45].dispatcher localJobs 14226
scalar FogSequentialForward.fog[45].dispatcher internalJobs 14345
scalar FogSequentialForward.fog[45].dispatcher externalJobs 3448034
scalar FogSequentialForward.fog[45].dispatcher remoteJobs 3447897
scalar FogSequentialForward.fog[45].dispatcher probeQueries 0
scalar FogSequentialForward.fog[45].dispatcher probeAnswers 0
scalar FogSequentialForward.fog[45].dispatcher droppedJobsSLA 256
scalar FogSequentialForward.fog[45].dispatcher jobs_class_1 3462379
scalar FogSequentialForward.fog[45].dispatcher remoteJobs_class_1 3447897
scalar FogSequentialForward.fog[45].dispatcher localJobs_class_1 14226
scalar FogSequentialForward.fog[45].dispatcher droppedJobsSLA_class_1 256
scalar FogSequentialForward.fog[45].server[0] rho 1
scalar FogSequentialForward.fog[45].server[0] congestionRatio 0
scalar FogSequentialForward.fog[45].server[0] totalJobs 14226
scalar FogSequentialForward.fog[45].server[0] droppedJobsQueue 963
scalar FogSequentialForward.fog[45].server[0] droppedJobsTimout 0
scalar FogSequentialForward.fog[45].server[0] droppedJobsSLA 8500
scalar FogSequentialForward.fog[45].server[0] droppedJobsTotal 9463
scalar FogSequentialForward.fog[46].dispatcher localJobs 14205
scalar FogSequentialForward.fog[46].dispatcher internalJobs 14362
scalar FogSequentialForward.fog[46].dispatcher externalJobs 3448964
scalar FogSequentialForward.fog[46].dispatcher remoteJobs 3448843
scalar FogSequentialForward.fog[46].dispatcher probeQueries 0
scalar FogSequentialForward.fog[46].dispatcher probeAnswers 0
scalar FogSequentialForward.fog[46].dispatcher droppedJobsSLA 278
scalar FogSequentialForward.fog[46].dispatcher jobs_class_1 3463326
scalar FogSequentialForward.fog[46].dispatcher remoteJobs_class_1 3448843
scalar FogSequentialForward.fog[46].dispatcher localJobs_class_1 14205
scalar FogSequentialForward.fog[46].dispatcher droppedJobsSLA_class_1 278
scalar FogSequentialForward.fog[46].server[0] rho 1
scalar FogSequentialForward.fog[46].server[0] congestionRatio 0
scalar FogSequentialForward.fog[46].server[0] totalJobs 14205
scalar FogSequentialForward.fog[46].server[0] droppedJobsQueue 955
scalar FogSequentialForward.fog[46].server[0] droppedJobsTimout 0
scalar FogSequentialForward.fog[46].server[0] droppedJobsSLA 8546
scalar FogSequentialForward.fog[46].server[0] droppedJobsTotal 9501
scalar FogSequentialForward.fog[47].dispatcher localJobs 14242
scalar FogSequentialForward.fog[47].dispatcher internalJobs 14579
scalar FogSequentialForward.fog[47].dispatcher externalJobs 3449410
scalar FogSequentialForward.fog[47].dispatcher remoteJobs 3449506
scalar FogSequentialForward.fog[47].dispatcher probeQueries 0
scalar FogSequentialForward.fog[47].dispatcher probeAnswers 0
scalar FogSequentialForward.fog[47].dispatcher droppedJobsSLA 241
scalar FogSequentialForward.fog[47].dispatcher jobs_class_1 3463989
scalar FogSequentialForward.fog[47].dispatcher remoteJobs_class_1 3449506
scalar FogSequentialForward.fog[47].dispatcher localJobs_class_1 14242
scalar FogSequentialForward.fog[47].dispatcher droppedJobsSLA_class_1 241
scalar FogSequentialForward.fog[47].server[0] rho 1
scalar FogSequentialForward.fog[47].server[0] congestionRatio 0
scalar FogSequentialForward.fog[47].server[0] totalJobs 14242
scalar FogSequentialForward.fog[47].server[0] droppedJobsQueue 960
scalar FogSequentialForward.fog[47].server[0] droppedJobsTimout 0
scalar FogSequentialForward.fog[47].server[0] droppedJobsSLA 8548
scalar FogSequentialForward.fog[47].server[0] droppedJobsTotal 9508
scalar FogSequentialForward.fog[48].dispatcher localJobs 14129
scalar FogSequentialForward.fog[48].dispatcher internalJobs 14402
scalar FogSequentialForward.fog[48].dispatcher externalJobs 3449145
scalar FogSequentialForward.fog[48].dispatcher remoteJobs 3449214
scalar FogSequentialForward.fog[48].dispatcher probeQueries 0
scalar FogSequentialForward.fog[48].dispatcher probeAnswers 0
scalar FogSequentialForward.fog[48].dispatcher droppedJobsSLA 204
scalar FogSequentialForward.fog[48].dispatcher jobs_class_1 3463547
scalar FogSequentialForward.fog[48].dispatcher remoteJobs_class_1 3449214
scalar FogSequentialForward.fog[48].dispatcher localJobs_class_1 14129
scalar FogSequentialForward.fog[48].dispatcher droppedJobsSLA_class_1 204
scalar FogSequentialForward.fog[48].server[0] rho 1
scalar FogSequentialForward.fog[48].server[0] congestionRatio 0
scalar FogSequentialForward.fog[48].server[0] totalJobs 14129
scalar FogSequentialForward.fog[48].server[0] droppedJobsQueue 956
scalar FogSequentialForward.fog[48].server[0] droppedJobsTimout 0
scalar FogSequentialForward.fog[48].server[0] droppedJobsSLA 8422
scalar FogSequentialForward.fog[48].server[0] droppedJobsTotal 9378
scalar FogSequentialForward.fog[49].dispatcher localJobs 14224
scalar FogSequentialForward.fog[49].dispatcher internalJobs 14296
scalar FogSequentialForward.fog[49].dispatcher externalJobs 3449490
scalar FogSequentialForward.fog[49].dispatcher remoteJobs 3449333
scalar FogSequentialForward.fog[49].dispatcher probeQueries 0
scalar FogSequentialForward.fog[49].dispatcher probeAnswers 0
scalar FogSequentialForward.fog[49].dispatcher droppedJobsSLA 229
scalar FogSequentialForward.fog[49].dispatcher jobs_class_1 3463786
scalar FogSequentialForward.fog[49].dispatcher remoteJobs_class_1 3449333
scalar FogSequentialForward.fog[49].dispatcher localJobs_class_1 14224
scalar FogSequentialForward.fog[49].dispatcher droppedJobsSLA_class_1 229
scalar FogSequentialForward.fog[49].server[0] rho 0.99997532367706
scalar FogSequentialForward.fog[49].server[0] congestionRatio 0
scalar FogSequentialForward.fog[49].server[0] totalJobs 14224
scalar FogSequentialForward.fog[49].server[0] droppedJobsQueue 963
scalar FogSequentialForward.fog[49].server[0] droppedJobsTimout 0
scalar FogSequentialForward.fog[49].server[0] droppedJobsSLA 8566
scalar FogSequentialForward.fog[49].server[0] droppedJobsTotal 9529
scalar FogSequentialForward.fog[50].dispatcher localJobs 14217
scalar FogSequentialForward.fog[50].dispatcher internalJobs 14559
scalar FogSequentialForward.fog[50].dispatcher externalJobs 3449652
scalar FogSequentialForward.fog[50].dispatcher remoteJobs 3449770
scalar FogSequentialForward.fog[50].dispatcher probeQueries 0
scalar FogSequentialForward.fog[50].dispatcher probeAnswers 0
scalar FogSequentialForward.fog[50].dispatcher droppedJobsSLA 224
scalar FogSequentialForward.fog[50].dispatcher jobs_class_1 3464211
scalar FogSequentialForward.fog[50].dispatcher remoteJobs_class_1 3449770
scalar FogSequentialForward.fog[50].dispatcher localJobs_class_1 14217
scalar FogSequentialForward.fog[50].dispatcher droppedJobsSLA_class_1 224
scalar FogSequentialForward.fog[50].server[0] rho 0.99999088048935
scalar FogSequentialForward.fog[50].server[0] congestionRatio 0
scalar FogSequentialForward.fog[50].server[0] totalJobs 14217
scalar FogSequentialForward.fog[50].server[0] droppedJobsQueue 964
scalar FogSequentialForward.fog[50].server[0] droppedJobsTimout 0
scalar FogSequentialForward.fog[50].server[0] droppedJobsSLA 8560
scalar FogSequentialForward.fog[50].server[0] droppedJobsTotal 9524
scalar FogSequentialForward.fog[51].dispatcher localJobs 14233
scalar FogSequentialForward.fog[51].dispatcher internalJobs 14566
scalar FogSequentialForward.fog[51].dispatcher externalJobs 3451583
scalar FogSequentialForward.fog[51].dispatcher remoteJobs 3451681
scalar FogSequentialForward.fog[51].dispatcher probeQueries 0
scalar FogSequentialForward.fog[51].dispatcher probeAnswers 0
scalar FogSequentialForward.fog[51].dispatcher droppedJobsSLA 235
scalar FogSequentialForward.fog[51].dispatcher jobs_class_1 3466149
scalar FogSequentialForward.fog[51].dispatcher remoteJobs_class_1 3451681
scalar FogSequentialForward.fog[51].dispatcher localJobs_class_1 14233
scalar FogSequentialForward.fog[51].dispatcher droppedJobsSLA_class_1 235
scalar FogSequentialForward.fog[51].server[0] rho 0.99999994039536
scalar FogSequentialForward.fog[51].server[0] congestionRatio 0
scalar FogSequentialForward.fog[51].server[0] totalJobs 14233
scalar FogSequentialForward.fog[51].server[0] droppedJobsQueue 962
scalar FogSequentialForward.fog[51].server[0] droppedJobsTimout 0
scalar FogSequentialForward.fog[51].server[0] droppedJobsSLA 8488
scalar FogSequentialForward.fog[51].server[0] droppedJobsTotal 9450
scalar FogSequentialForward.fog[52].dispatcher localJobs 14198
scalar FogSequentialForward.fog[52].dispatcher internalJobs 14466
scalar FogSequentialForward.fog[52].dispatcher externalJobs 3447079
scalar FogSequentialForward.fog[52].dispatcher remoteJobs 3447124
scalar FogSequentialForward.fog[52].dispatcher probeQueries 0
scalar FogSequentialForward.fog[52].dispatcher probeAnswers 0
scalar FogSequentialForward.fog[52].dispatcher droppedJobsSLA 223
scalar FogSequentialForward.fog[52].dispatcher jobs_class_1 3461545
scalar FogSequentialForward.fog[52].dispatcher remoteJobs_class_1 3447124
scalar FogSequentialForward.fog[52].dispatcher localJobs_class_1 14198
scalar FogSequentialForward.fog[52].dispatcher droppedJobsSLA_class_1 223
scalar FogSequentialForward.fog[52].server[0] rho 1
scalar FogSequentialForward.fog[52].server[0] congestionRatio 0
scalar FogSequentialForward.fog[52].server[0] totalJobs 14198
scalar FogSequentialForward.fog[52].server[0] droppedJobsQueue 956
scalar FogSequentialForward.fog[52].server[0] droppedJobsTimout 0
scalar FogSequentialForward.fog[52].server[0] droppedJobsSLA 8511
scalar FogSequentialForward.fog[52].server[0] droppedJobsTotal 9467
scalar FogSequentialForward.fog[53].dispatcher localJobs 14270
scalar FogSequentialForward.fog[53].dispatcher internalJobs 14758
scalar FogSequentialForward.fog[53].dispatcher externalJobs 3449744
scalar FogSequentialForward.fog[53].dispatcher remoteJobs 3450032
scalar FogSequentialForward.fog[53].dispatcher probeQueries 0
scalar FogSequentialForward.fog[53].dispatcher probeAnswers 0
scalar FogSequentialForward.fog[53].dispatcher droppedJobsSLA 200
scalar FogSequentialForward.fog[53].dispatcher jobs_class_1 3464502
scalar FogSequentialForward.fog[53].dispatcher remoteJobs_class_1 3450032
scalar FogSequentialForward.fog[53].dispatcher localJobs_class_1 14270
scalar FogSequentialForward.fog[53].dispatcher droppedJobsSLA_class_1 200
scalar FogSequentialForward.fog[53].server[0] rho 1
scalar FogSequentialForward.fog[53].server[0] congestionRatio 0
scalar FogSequentialForward.fog[53].server[0] totalJobs 14270
scalar FogSequentialForward.fog[53].server[0] droppedJobsQueue 965
scalar FogSequentialForward.fog[53].server[0] droppedJobsTimout 0
scalar FogSequentialForward.fog[53].server[0] droppedJobsSLA 8544
scalar FogSequentialForward.fog[53].server[0] droppedJobsTotal 9509
scalar FogSequentialForward.fog[54].dispatcher localJobs 14138
scalar FogSequentialForward.fog[54].dispatcher internalJobs 14567
scalar FogSequentialForward.fog[54].dispatcher externalJobs 3449737
scalar FogSequentialForward.fog[54].dispatcher remoteJobs 3449943
scalar FogSequentialForward.fog[54].dispatcher probeQueries 0
scalar FogSequentialForward.fog[54].dispatcher probeAnswers 0
scalar FogSequentialForward.fog[54].dispatcher droppedJobsSLA 223
scalar FogSequentialForward.fog[54].dispatcher jobs_class_1 3464304
scalar FogSequentialForward.fog[54].dispatcher remoteJobs_class_1 3449943
scalar FogSequentialForward.fog[54].dispatcher localJobs_class_1 14138
scalar FogSequentialForward.fog[54].dispatcher droppedJobsSLA_class_1 223
scalar FogSequentialForward.fog[54].server[0] rho 0.99999994039536
scalar FogSequentialForward.fog[54].server[0] congestionRatio 0
scalar FogSequentialForward.fog[54].server[0] totalJobs 14138
scalar FogSequentialForward.fog[54].server[0] droppedJobsQueue 950
scalar FogSequentialForward.fog[54].server[0] droppedJobsTimout 0
scalar FogSequentialForward.fog[54].server[0] droppedJobsSLA 8427
scalar FogSequentialForward.fog[54].server[0] droppedJobsTotal 9377
scalar FogSequentialForward.fog[55].dispatcher localJobs 14221
scalar FogSequentialForward.fog[55].dispatcher internalJobs 14349
scalar FogSequentialForward.fog[55].dispatcher externalJobs 3446785
scalar FogSequentialForward.fog[55].dispatcher remoteJobs 3446661
scalar FogSequentialForward.fog[55].dispatcher probeQueries 0
scalar FogSequentialForward.fog[55].dispatcher probeAnswers 0
scalar FogSequentialForward.fog[55].dispatcher droppedJobsSLA 252
scalar FogSequentialForward.fog[55].dispatcher jobs_class_1 3461134
scalar FogSequentialForward.fog[55].dispatcher remoteJobs_class_1 3446661
scalar FogSequentialForward.fog[55].dispatcher localJobs_class_1 14221
scalar FogSequentialForward.fog[55].dispatcher droppedJobsSLA_class_1 252
scalar FogSequentialForward.fog[55].server[0] rho 0.99999994039536
scalar FogSequentialForward.fog[55].server[0] congestionRatio 0
scalar FogSequentialForward.fog[55].server[0] totalJobs 14221
scalar FogSequentialForward.fog[55].server[0] droppedJobsQueue 960
scalar FogSequentialForward.fog[55].server[0] droppedJobsTimout 0
scalar FogSequentialForward.fog[55].server[0] droppedJobsSLA 8569
scalar FogSequentialForward.fog[55].server[0] droppedJobsTotal 9529
scalar FogSequentialForward.fog[56].dispatcher localJobs 14217
scalar FogSequentialForward.fog[56].dispatcher internalJobs 14460
scalar FogSequentialForward.fog[56].dispatcher externalJobs 3449696
scalar FogSequentialForward.fog[56].dispatcher remoteJobs 3449713
scalar FogSequentialForward.fog[56].dispatcher probeQueries 0
scalar FogSequentialForward.fog[56].dispatcher probeAnswers 0
scalar FogSequentialForward.fog[56].dispatcher droppedJobsSLA 226
scalar FogSequentialForward.fog[56].dispatcher jobs_class_1 3464156
scalar FogSequentialForward.fog[56].dispatcher remoteJobs_class_1 3449713
scalar FogSequentialForward.fog[56].dispatcher localJobs_class_1 14217
scalar FogSequentialForward.fog[56].dispatcher droppedJobsSLA_class_1 226
scalar FogSequentialForward.fog[56].server[0] rho 1
scalar FogSequentialForward.fog[56].server[0] congestionRatio 0
scalar FogSequentialForward.fog[56].server[0] totalJobs 14217
scalar FogSequentialForward.fog[56].server[0] droppedJobsQueue 961
scalar FogSequentialForward.fog[56].server[0] droppedJobsTimout 0
scalar FogSequentialForward.fog[56].server[0] droppedJobsSLA 8555
scalar FogSequentialForward.fog[56].server[0] droppedJobsTotal 9516
scalar FogSequentialForward.fog[57].dispatcher localJobs 14135
scalar FogSequentialForward.fog[57].dispatcher internalJobs 14607
scalar FogSequentialForward.fog[57].dispatcher externalJobs 3446939
scalar FogSequentialForward.fog[57].dispatcher remoteJobs 3447178
scalar FogSequentialForward.fog[57].dispatcher probeQueries 0
scalar FogSequentialForward.fog[57].dispatcher probeAnswers 0
scalar FogSequentialForward.fog[57].dispatcher droppedJobsSLA 233
scalar FogSequentialForward.fog[57].dispatcher jobs_class_1 3461546
scalar FogSequentialForward.fog[57].dispatcher remoteJobs_class_1 3447178
scalar FogSequentialForward.fog[57].dispatcher localJobs_class_1 14135
scalar FogSequentialForward.fog[57].dispatcher droppedJobsSLA_class_1 233
scalar FogSequentialForward.fog[57].server[0] rho 0.99996536970139
scalar FogSequentialForward.fog[57].server[0] congestionRatio 0
scalar FogSequentialForward.fog[57].server[0] totalJobs 14135
scalar FogSequentialForward.fog[57].server[0] droppedJobsQueue 954
scalar FogSequentialForward.fog[57].server[0] droppedJobsTimout 0
scalar FogSequentialForward.fog[57].server[0] droppedJobsSLA 8402
scalar FogSequentialForward.fog[57].server[0] droppedJobsTotal 9356
scalar FogSequentialForward.fog[58].dispatcher localJobs 14159
scalar FogSequentialForward.fog[58].dispatcher internalJobs 14288
scalar FogSequentialForward.fog[58].dispatcher externalJobs 3449936
scalar FogSequentialForward.fog[58].dispatcher remoteJobs 3449803
scalar FogSequentialForward.fog[58].dispatcher probeQueries 0
scalar FogSequentialForward.fog[58].dispatcher probeAnswers 0
scalar FogSequentialForward.fog[58].dispatcher droppedJobsSLA 262
scalar FogSequentialForward.fog[58].dispatcher jobs_class_1 3464224
scalar FogSequentialForward.fog[58].dispatcher remoteJobs_class_1 3449803
scalar FogSequentialForward.fog[58].dispatcher localJobs_class_1 14159
scalar FogSequentialForward.fog[58].dispatcher droppedJobsSLA_class_1 262
scalar FogSequentialForward.fog[58].server[0] rho 0.99980783462524
scalar FogSequentialForward.fog[58].server[0] congestionRatio 0
scalar FogSequentialForward.fog[58].server[0] totalJobs 14159
scalar FogSequentialForward.fog[58].server[0] droppedJobsQueue 962
scalar FogSequentialForward.fog[58].server[0] droppedJobsTimout 0
scalar FogSequentialForward.fog[58].server[0] droppedJobsSLA 8469
scalar FogSequentialForward.fog[58].server[0] droppedJobsTotal 9431
scalar FogSequentialForward.fog[59].dispatcher localJobs 14206
scalar FogSequentialForward.fog[59].dispatcher internalJobs 14318
scalar FogSequentialForward.fog[59].dispatcher externalJobs 3451800
scalar FogSequentialForward.fog[59].dispatcher remoteJobs 3451688
scalar FogSequentialForward.fog[59].dispatcher probeQueries 0
scalar FogSequentialForward.fog[59].dispatcher probeAnswers 0
scalar FogSequentialForward.fog[59].dispatcher droppedJobsSLA 224
scalar FogSequentialForward.fog[59].dispatcher jobs_class_1 3466118
scalar FogSequentialForward.fog[59].dispatcher remoteJobs_class_1 3451688
scalar FogSequentialForward.fog[59].dispatcher localJobs_class_1 14206
scalar FogSequentialForward.fog[59].dispatcher droppedJobsSLA_class_1 224
scalar FogSequentialForward.fog[59].server[0] rho 0.99999994039536
scalar FogSequentialForward.fog[59].server[0] congestionRatio 0
scalar FogSequentialForward.fog[59].server[0] totalJobs 14206
scalar FogSequentialForward.fog[59].server[0] droppedJobsQueue 957
scalar FogSequentialForward.fog[59].server[0] droppedJobsTimout 0
scalar FogSequentialForward.fog[59].server[0] droppedJobsSLA 8559
scalar FogSequentialForward.fog[59].server[0] droppedJobsTotal 9516
scalar FogSequentialForward.fog[60].dispatcher localJobs 14174
scalar FogSequentialForward.fog[60].dispatcher internalJobs 14385
scalar FogSequentialForward.fog[60].dispatcher externalJobs 3445841
scalar FogSequentialForward.fog[60].dispatcher remoteJobs 3445805
scalar FogSequentialForward.fog[60].dispatcher probeQueries 0
scalar FogSequentialForward.fog[60].dispatcher probeAnswers 0
scalar FogSequentialForward.fog[60].dispatcher droppedJobsSLA 247
scalar FogSequentialForward.fog[60].dispatcher jobs_class_1 3460226
scalar FogSequentialForward.fog[60].dispatcher remoteJobs_class_1 3445805
scalar FogSequentialForward.fog[60].dispatcher localJobs_class_1 14174
scalar FogSequentialForward.fog[60].dispatcher droppedJobsSLA_class_1 247
scalar FogSequentialForward.fog[60].server[0] rho 1
scalar FogSequentialForward.fog[60].server[0] congestionRatio 0
scalar FogSequentialForward.fog[60].server[0] totalJobs 14174
scalar FogSequentialForward.fog[60].server[0] droppedJobsQueue 958
scalar FogSequentialForward.fog[60].server[0] droppedJobsTimout 0
scalar FogSequentialForward.fog[60].server[0] droppedJobsSLA 8502
scalar FogSequentialForward.fog[60].server[0] droppedJobsTotal 9460
scalar FogSequentialForward.fog[61].dispatcher localJobs 14174
scalar FogSequentialForward.fog[61].dispatcher internalJobs 14439
scalar FogSequentialForward.fog[61].dispatcher externalJobs 3449914
scalar FogSequentialForward.fog[61].dispatcher remoteJobs 3449962
scalar FogSequentialForward.fog[61].dispatcher probeQueries 0
scalar FogSequentialForward.fog[61].dispatcher probeAnswers 0
scalar FogSequentialForward.fog[61].dispatcher droppedJobsSLA 217
scalar FogSequentialForward.fog[61].dispatcher jobs_class_1 3464353
scalar FogSequentialForward.fog[61].dispatcher remoteJobs_class_1 3449962
scalar FogSequentialForward.fog[61].dispatcher localJobs_class_1 14174
scalar FogSequentialForward.fog[61].dispatcher droppedJobsSLA_class_1 217
scalar FogSequentialForward.fog[61].server[0] rho 0.99993485212326
scalar FogSequentialForward.fog[61].server[0] congestionRatio 0
scalar FogSequentialForward.fog[61].server[0] totalJobs 14174
scalar FogSequentialForward.fog[61].server[0] droppedJobsQueue 955
scalar FogSequentialForward.fog[61].server[0] droppedJobsTimout 0
scalar FogSequentialForward.fog[61].server[0] droppedJobsSLA 8487
scalar FogSequentialForward.fog[61].server[0] droppedJobsTotal 9442
scalar FogSequentialForward.fog[62].dispatcher localJobs 14226
scalar FogSequentialForward.fog[62].dispatcher internalJobs 14598
scalar FogSequentialForward.fog[62].dispatcher externalJobs 3450655
scalar FogSequentialForward.fog[62].dispatcher remoteJobs 3450803
scalar FogSequentialForward.fog[62].dispatcher probeQueries 0
scalar FogSequentialForward.fog[62].dispatcher probeAnswers 0
scalar FogSequentialForward.fog[62].dispatcher droppedJobsSLA 224
scalar FogSequentialForward.fog[62].dispatcher jobs_class_1 3465253
scalar FogSequentialForward.fog[62].dispatcher remoteJobs_class_1 3450803
scalar FogSequentialForward.fog[62].dispatcher localJobs_class_1 14226
scalar FogSequentialForward.fog[62].dispatcher droppedJobsSLA_class_1 224
scalar FogSequentialForward.fog[62].server[0] rho 0.99999994039536
scalar FogSequentialForward.fog[62].server[0] congestionRatio 0
scalar FogSequentialForward.fog[62].server[0] totalJobs 14226
scalar FogSequentialForward.fog[62].server[0] droppedJobsQueue 966
scalar FogSequentialForward.fog[62].server[0] droppedJobsTimout 0
scalar FogSequentialForward.fog[62].server[0] droppedJobsSLA 8557
scalar FogSequentialForward.fog[62].server[0] droppedJobsTotal 9523
scalar FogSequentialForward.fog[63].dispatcher localJobs 14177
scalar FogSequentialForward.fog[63].dispatcher internalJobs 14485
scalar FogSequentialForward.fog[63].dispatcher externalJobs 3447390
scalar FogSequentialForward.fog[63].dispatcher remoteJobs 3447452
scalar FogSequentialForward.fog[63].dispatcher probeQueries 0
scalar FogSequentialForward.fog[63].dispatcher probeAnswers 0
scalar FogSequentialForward.fog[63].dispatcher droppedJobsSLA 246
scalar FogSequentialForward.fog[63].dispatcher jobs_class_1 3461875
scalar FogSequentialForward.fog[63].dispatcher remoteJobs_class_1 3447452
scalar FogSequentialForward.fog[63].dispatcher localJobs_class_1 14177
scalar FogSequentialForward.fog[63].dispatcher droppedJobsSLA_class_1 246
scalar FogSequentialForward.fog[63].server[0] rho 1
scalar FogSequentialForward.fog[63].server[0] congestionRatio 0
scalar FogSequentialForward.fog[63].server[0] totalJobs 14177
scalar FogSequentialForward.fog[63].server[0] droppedJobsQueue 957
scalar FogSequentialForward.fog[63].server[0] droppedJobsTimout 0
scalar FogSequentialForward.fog[63].server[0] droppedJobsSLA 8556
scalar FogSequentialForward.fog[63].server[0] droppedJobsTotal 9513
scalar FogSequentialForward.fog[64].dispatcher localJobs 14138
scalar FogSequentialForward.fog[64].dispatcher internalJobs 14280
scalar FogSequentialForward.fog[64].dispatcher externalJobs 3447250
scalar FogSequentialForward.fog[64].dispatcher remoteJobs 3447167
scalar FogSequentialForward.fog[64].dispatcher probeQueries 0
scalar FogSequentialForward.fog[64].dispatcher probeAnswers 0
scalar FogSequentialForward.fog[64].dispatcher droppedJobsSLA 225
scalar FogSequentialForward.fog[64].dispatcher jobs_class_1 3461530
scalar FogSequentialForward.fog[64].dispatcher remoteJobs_class_1 3447167
scalar FogSequentialForward.fog[64].dispatcher localJobs_class_1 14138
scalar FogSequentialForward.fog[64].dispatcher droppedJobsSLA_class_1 225
scalar FogSequentialForward.fog[64].server[0] rho 1
scalar FogSequentialForward.fog[64].server[0] congestionRatio 0
scalar FogSequentialForward.fog[64].server[0] totalJobs 14138
scalar FogSequentialForward.fog[64].server[0] droppedJobsQueue 951
scalar FogSequentialForward.fog[64].server[0] droppedJobsTimout 0
scalar FogSequentialForward.fog[64].server[0] droppedJobsSLA 8447
scalar FogSequentialForward.fog[64].server[0] droppedJobsTotal 9398
scalar FogSequentialForward.fog[65].dispatcher localJobs 14194
scalar FogSequentialForward.fog[65].dispatcher internalJobs 14475
scalar FogSequentialForward.fog[65].dispatcher externalJobs 3448559
scalar FogSequentialForward.fog[65].dispatcher remoteJobs 3448627
scalar FogSequentialForward.fog[65].dispatcher probeQueries 0
scalar FogSequentialForward.fog[65].dispatcher probeAnswers 0
scalar FogSequentialForward.fog[65].dispatcher droppedJobsSLA 213
scalar FogSequentialForward.fog[65].dispatcher jobs_class_1 3463034
scalar FogSequentialForward.fog[65].dispatcher remoteJobs_class_1 3448627
scalar FogSequentialForward.fog[65].dispatcher localJobs_class_1 14194
scalar FogSequentialForward.fog[65].dispatcher droppedJobsSLA_class_1 213
scalar FogSequentialForward.fog[65].server[0] rho 0.99976450204849
scalar FogSequentialForward.fog[65].server[0] congestionRatio 0
scalar FogSequentialForward.fog[65].server[0] totalJobs 14194
scalar FogSequentialForward.fog[65].server[0] droppedJobsQueue 960
scalar FogSequentialForward.fog[65].server[0] droppedJobsTimout 0
scalar FogSequentialForward.fog[65].server[0] droppedJobsSLA 8479
scalar FogSequentialForward.fog[65].server[0] droppedJobsTotal 9439
scalar FogSequentialForward.fog[66].dispatcher localJobs 14237
scalar FogSequentialForward.fog[66].dispatcher internalJobs 14348
scalar FogSequentialForward.fog[66].dispatcher externalJobs 3450629
scalar FogSequentialForward.fog[66].dispatcher remoteJobs 3450489
[...]
scalar FogSequentialForward.fog[84].dispatcher remoteJobs 3450031
scalar FogSequentialForward.fog[84].dispatcher probeQueries 0
scalar FogSequentialForward.fog[84].dispatcher probeAnswers 0
scalar FogSequentialForward.fog[84].dispatcher droppedJobsSLA 232
scalar FogSequentialForward.fog[84].dispatcher jobs_class_1 3464415
scalar FogSequentialForward.fog[84].dispatcher remoteJobs_class_1 3450031
scalar FogSequentialForward.fog[84].dispatcher localJobs_class_1 14152
scalar FogSequentialForward.fog[84].dispatcher droppedJobsSLA_class_1 232
scalar FogSequentialForward.fog[84].server[0] rho 0.99999934434891
scalar FogSequentialForward.fog[84].server[0] congestionRatio 0
scalar FogSequentialForward.fog[84].server[0] totalJobs 14152
scalar FogSequentialForward.fog[84].server[0] droppedJobsQueue 952
scalar FogSequentialForward.fog[84].server[0] droppedJobsTimout 0
scalar FogSequentialForward.fog[84].server[0] droppedJobsSLA 8443
scalar FogSequentialForward.fog[84].server[0] droppedJobsTotal 9395
scalar FogSequentialForward.fog[85].dispatcher localJobs 14183
scalar FogSequentialForward.fog[85].dispatcher internalJobs 14388
scalar FogSequentialForward.fog[85].dispatcher externalJobs 3450555
scalar FogSequentialForward.fog[85].dispatcher remoteJobs 3450544
scalar FogSequentialForward.fog[85].dispatcher probeQueries 0
scalar FogSequentialForward.fog[85].dispatcher probeAnswers 0
scalar FogSequentialForward.fog[85].dispatcher droppedJobsSLA 216
scalar FogSequentialForward.fog[85].dispatcher jobs_class_1 3464943
scalar FogSequentialForward.fog[85].dispatcher remoteJobs_class_1 3450544
scalar FogSequentialForward.fog[85].dispatcher localJobs_class_1 14183
scalar FogSequentialForward.fog[85].dispatcher droppedJobsSLA_class_1 216
scalar FogSequentialForward.fog[85].server[0] rho 1
scalar FogSequentialForward.fog[85].server[0] congestionRatio 0
scalar FogSequentialForward.fog[85].server[0] totalJobs 14183
scalar FogSequentialForward.fog[85].server[0] droppedJobsQueue 958
scalar FogSequentialForward.fog[85].server[0] droppedJobsTimout 0
scalar FogSequentialForward.fog[85].server[0] droppedJobsSLA 8474
scalar FogSequentialForward.fog[85].server[0] droppedJobsTotal 9432
scalar FogSequentialForward.fog[86].dispatcher localJobs 14160
scalar FogSequentialForward.fog[86].dispatcher internalJobs 14454
scalar FogSequentialForward.fog[86].dispatcher externalJobs 3446970
scalar FogSequentialForward.fog[86].dispatcher remoteJobs 3447024
scalar FogSequentialForward.fog[86].dispatcher probeQueries 0
scalar FogSequentialForward.fog[86].dispatcher probeAnswers 0
scalar FogSequentialForward.fog[86].dispatcher droppedJobsSLA 240
scalar FogSequentialForward.fog[86].dispatcher jobs_class_1 3461424
scalar FogSequentialForward.fog[86].dispatcher remoteJobs_class_1 3447024
scalar FogSequentialForward.fog[86].dispatcher localJobs_class_1 14160
scalar FogSequentialForward.fog[86].dispatcher droppedJobsSLA_class_1 240
scalar FogSequentialForward.fog[86].server[0] rho 0.99999934434891
scalar FogSequentialForward.fog[86].server[0] congestionRatio 0
scalar FogSequentialForward.fog[86].server[0] totalJobs 14160
scalar FogSequentialForward.fog[86].server[0] droppedJobsQueue 958
scalar FogSequentialForward.fog[86].server[0] droppedJobsTimout 0
scalar FogSequentialForward.fog[86].server[0] droppedJobsSLA 8510
scalar FogSequentialForward.fog[86].server[0] droppedJobsTotal 9468
scalar FogSequentialForward.fog[87].dispatcher localJobs 14167
scalar FogSequentialForward.fog[87].dispatcher internalJobs 14567
scalar FogSequentialForward.fog[87].dispatcher externalJobs 3446688
scalar FogSequentialForward.fog[87].dispatcher remoteJobs 3446829
scalar FogSequentialForward.fog[87].dispatcher probeQueries 0
scalar FogSequentialForward.fog[87].dispatcher probeAnswers 0
scalar FogSequentialForward.fog[87].dispatcher droppedJobsSLA 259
scalar FogSequentialForward.fog[87].dispatcher jobs_class_1 3461255
scalar FogSequentialForward.fog[87].dispatcher remoteJobs_class_1 3446829
scalar FogSequentialForward.fog[87].dispatcher localJobs_class_1 14167
scalar FogSequentialForward.fog[87].dispatcher droppedJobsSLA_class_1 259
scalar FogSequentialForward.fog[87].server[0] rho 0.99969953298569
scalar FogSequentialForward.fog[87].server[0] congestionRatio 0
scalar FogSequentialForward.fog[87].server[0] totalJobs 14167
scalar FogSequentialForward.fog[87].server[0] droppedJobsQueue 957
scalar FogSequentialForward.fog[87].server[0] droppedJobsTimout 0
scalar FogSequentialForward.fog[87].server[0] droppedJobsSLA 8494
scalar FogSequentialForward.fog[87].server[0] droppedJobsTotal 9451
scalar FogSequentialForward.fog[88].dispatcher localJobs 14169
scalar FogSequentialForward.fog[88].dispatcher internalJobs 14444
scalar FogSequentialForward.fog[88].dispatcher externalJobs 3450191
scalar FogSequentialForward.fog[88].dispatcher remoteJobs 3450220
scalar FogSequentialForward.fog[88].dispatcher probeQueries 0
scalar FogSequentialForward.fog[88].dispatcher probeAnswers 0
scalar FogSequentialForward.fog[88].dispatcher droppedJobsSLA 246
scalar FogSequentialForward.fog[88].dispatcher jobs_class_1 3464635
scalar FogSequentialForward.fog[88].dispatcher remoteJobs_class_1 3450220
scalar FogSequentialForward.fog[88].dispatcher localJobs_class_1 14169
scalar FogSequentialForward.fog[88].dispatcher droppedJobsSLA_class_1 246
scalar FogSequentialForward.fog[88].server[0] rho 1
scalar FogSequentialForward.fog[88].server[0] congestionRatio 0
scalar FogSequentialForward.fog[88].server[0] totalJobs 14169
scalar FogSequentialForward.fog[88].server[0] droppedJobsQueue 959
scalar FogSequentialForward.fog[88].server[0] droppedJobsTimout 0
scalar FogSequentialForward.fog[88].server[0] droppedJobsSLA 8505
scalar FogSequentialForward.fog[88].server[0] droppedJobsTotal 9464
scalar FogSequentialForward.fog[89].dispatcher localJobs 14278
scalar FogSequentialForward.fog[89].dispatcher internalJobs 14415
scalar FogSequentialForward.fog[89].dispatcher externalJobs 3449116
scalar FogSequentialForward.fog[89].dispatcher remoteJobs 3449006
scalar FogSequentialForward.fog[89].dispatcher probeQueries 0
scalar FogSequentialForward.fog[89].dispatcher probeAnswers 0
scalar FogSequentialForward.fog[89].dispatcher droppedJobsSLA 247
scalar FogSequentialForward.fog[89].dispatcher jobs_class_1 3463531
scalar FogSequentialForward.fog[89].dispatcher remoteJobs_class_1 3449006
scalar FogSequentialForward.fog[89].dispatcher localJobs_class_1 14278
scalar FogSequentialForward.fog[89].dispatcher droppedJobsSLA_class_1 247
scalar FogSequentialForward.fog[89].server[0] rho 1
scalar FogSequentialForward.fog[89].server[0] congestionRatio 0
scalar FogSequentialForward.fog[89].server[0] totalJobs 14278
scalar FogSequentialForward.fog[89].server[0] droppedJobsQueue 961
scalar FogSequentialForward.fog[89].server[0] droppedJobsTimout 0
scalar FogSequentialForward.fog[89].server[0] droppedJobsSLA 8613
scalar FogSequentialForward.fog[89].server[0] droppedJobsTotal 9574
scalar FogSequentialForward.fog[90].dispatcher localJobs 14160
scalar FogSequentialForward.fog[90].dispatcher internalJobs 14340
scalar FogSequentialForward.fog[90].dispatcher externalJobs 3448907
scalar FogSequentialForward.fog[90].dispatcher remoteJobs 3448837
scalar FogSequentialForward.fog[90].dispatcher probeQueries 0
scalar FogSequentialForward.fog[90].dispatcher probeAnswers 0
scalar FogSequentialForward.fog[90].dispatcher droppedJobsSLA 250
scalar FogSequentialForward.fog[90].dispatcher jobs_class_1 3463247
scalar FogSequentialForward.fog[90].dispatcher remoteJobs_class_1 3448837
scalar FogSequentialForward.fog[90].dispatcher localJobs_class_1 14160
scalar FogSequentialForward.fog[90].dispatcher droppedJobsSLA_class_1 250
scalar FogSequentialForward.fog[90].server[0] rho 0.99999874830246
scalar FogSequentialForward.fog[90].server[0] congestionRatio 0
scalar FogSequentialForward.fog[90].server[0] totalJobs 14160
scalar FogSequentialForward.fog[90].server[0] droppedJobsQueue 958
scalar FogSequentialForward.fog[90].server[0] droppedJobsTimout 0
scalar FogSequentialForward.fog[90].server[0] droppedJobsSLA 8506
scalar FogSequentialForward.fog[90].server[0] droppedJobsTotal 9464
scalar FogSequentialForward.fog[91].dispatcher localJobs 14222
scalar FogSequentialForward.fog[91].dispatcher internalJobs 14486
scalar FogSequentialForward.fog[91].dispatcher externalJobs 3451413
scalar FogSequentialForward.fog[91].dispatcher remoteJobs 3451449
scalar FogSequentialForward.fog[91].dispatcher probeQueries 0
scalar FogSequentialForward.fog[91].dispatcher probeAnswers 0
scalar FogSequentialForward.fog[91].dispatcher droppedJobsSLA 228
scalar FogSequentialForward.fog[91].dispatcher jobs_class_1 3465899
scalar FogSequentialForward.fog[91].dispatcher remoteJobs_class_1 3451449
scalar FogSequentialForward.fog[91].dispatcher localJobs_class_1 14222
scalar FogSequentialForward.fog[91].dispatcher droppedJobsSLA_class_1 228
scalar FogSequentialForward.fog[91].server[0] rho 1
scalar FogSequentialForward.fog[91].server[0] congestionRatio 0
scalar FogSequentialForward.fog[91].server[0] totalJobs 14222
scalar FogSequentialForward.fog[91].server[0] droppedJobsQueue 960
scalar FogSequentialForward.fog[91].server[0] droppedJobsTimout 0
scalar FogSequentialForward.fog[91].server[0] droppedJobsSLA 8498
scalar FogSequentialForward.fog[91].server[0] droppedJobsTotal 9458
scalar FogSequentialForward.fog[92].dispatcher localJobs 14243
scalar FogSequentialForward.fog[92].dispatcher internalJobs 14398
scalar FogSequentialForward.fog[92].dispatcher externalJobs 3450329
scalar FogSequentialForward.fog[92].dispatcher remoteJobs 3450233
scalar FogSequentialForward.fog[92].dispatcher probeQueries 0
scalar FogSequentialForward.fog[92].dispatcher probeAnswers 0
scalar FogSequentialForward.fog[92].dispatcher droppedJobsSLA 251
scalar FogSequentialForward.fog[92].dispatcher jobs_class_1 3464727
scalar FogSequentialForward.fog[92].dispatcher remoteJobs_class_1 3450233
scalar FogSequentialForward.fog[92].dispatcher localJobs_class_1 14243
scalar FogSequentialForward.fog[92].dispatcher droppedJobsSLA_class_1 251
scalar FogSequentialForward.fog[92].server[0] rho 0.99999922513962
scalar FogSequentialForward.fog[92].server[0] congestionRatio 0
scalar FogSequentialForward.fog[92].server[0] totalJobs 14243
scalar FogSequentialForward.fog[92].server[0] droppedJobsQueue 963
scalar FogSequentialForward.fog[92].server[0] droppedJobsTimout 0
scalar FogSequentialForward.fog[92].server[0] droppedJobsSLA 8548
scalar FogSequentialForward.fog[92].server[0] droppedJobsTotal 9511
scalar FogSequentialForward.fog[93].dispatcher localJobs 14183
scalar FogSequentialForward.fog[93].dispatcher internalJobs 14436
scalar FogSequentialForward.fog[93].dispatcher externalJobs 3445600
scalar FogSequentialForward.fog[93].dispatcher remoteJobs 3445612
scalar FogSequentialForward.fog[93].dispatcher probeQueries 0
scalar FogSequentialForward.fog[93].dispatcher probeAnswers 0
scalar FogSequentialForward.fog[93].dispatcher droppedJobsSLA 241
scalar FogSequentialForward.fog[93].dispatcher jobs_class_1 3460036
scalar FogSequentialForward.fog[93].dispatcher remoteJobs_class_1 3445612
scalar FogSequentialForward.fog[93].dispatcher localJobs_class_1 14183
scalar FogSequentialForward.fog[93].dispatcher droppedJobsSLA_class_1 241
scalar FogSequentialForward.fog[93].server[0] rho 1
scalar FogSequentialForward.fog[93].server[0] congestionRatio 0
scalar FogSequentialForward.fog[93].server[0] totalJobs 14183
scalar FogSequentialForward.fog[93].server[0] droppedJobsQueue 957
scalar FogSequentialForward.fog[93].server[0] droppedJobsTimout 0
scalar FogSequentialForward.fog[93].server[0] droppedJobsSLA 8451
scalar FogSequentialForward.fog[93].server[0] droppedJobsTotal 9408
scalar FogSequentialForward.fog[94].dispatcher localJobs 14191
scalar FogSequentialForward.fog[94].dispatcher internalJobs 14504
scalar FogSequentialForward.fog[94].dispatcher externalJobs 3449889
scalar FogSequentialForward.fog[94].dispatcher remoteJobs 3449969
scalar FogSequentialForward.fog[94].dispatcher probeQueries 0
scalar FogSequentialForward.fog[94].dispatcher probeAnswers 0
scalar FogSequentialForward.fog[94].dispatcher droppedJobsSLA 233
scalar FogSequentialForward.fog[94].dispatcher jobs_class_1 3464393
scalar FogSequentialForward.fog[94].dispatcher remoteJobs_class_1 3449969
scalar FogSequentialForward.fog[94].dispatcher localJobs_class_1 14191
scalar FogSequentialForward.fog[94].dispatcher droppedJobsSLA_class_1 233
scalar FogSequentialForward.fog[94].server[0] rho 1
scalar FogSequentialForward.fog[94].server[0] congestionRatio 0
scalar FogSequentialForward.fog[94].server[0] totalJobs 14191
scalar FogSequentialForward.fog[94].server[0] droppedJobsQueue 959
scalar FogSequentialForward.fog[94].server[0] droppedJobsTimout 0
scalar FogSequentialForward.fog[94].server[0] droppedJobsSLA 8533
scalar FogSequentialForward.fog[94].server[0] droppedJobsTotal 9492
scalar FogSequentialForward.fog[95].dispatcher localJobs 14227
scalar FogSequentialForward.fog[95].dispatcher internalJobs 14385
scalar FogSequentialForward.fog[95].dispatcher externalJobs 3448543
scalar FogSequentialForward.fog[95].dispatcher remoteJobs 3448466
scalar FogSequentialForward.fog[95].dispatcher probeQueries 0
scalar FogSequentialForward.fog[95].dispatcher probeAnswers 0
scalar FogSequentialForward.fog[95].dispatcher droppedJobsSLA 235
scalar FogSequentialForward.fog[95].dispatcher jobs_class_1 3462928
scalar FogSequentialForward.fog[95].dispatcher remoteJobs_class_1 3448466
scalar FogSequentialForward.fog[95].dispatcher localJobs_class_1 14227
scalar FogSequentialForward.fog[95].dispatcher droppedJobsSLA_class_1 235
scalar FogSequentialForward.fog[95].server[0] rho 0.99999988079071
scalar FogSequentialForward.fog[95].server[0] congestionRatio 0
scalar FogSequentialForward.fog[95].server[0] totalJobs 14227
scalar FogSequentialForward.fog[95].server[0] droppedJobsQueue 964
scalar FogSequentialForward.fog[95].server[0] droppedJobsTimout 0
scalar FogSequentialForward.fog[95].server[0] droppedJobsSLA 8586
scalar FogSequentialForward.fog[95].server[0] droppedJobsTotal 9550
scalar FogSequentialForward.fog[96].dispatcher localJobs 14156
scalar FogSequentialForward.fog[96].dispatcher internalJobs 14301
scalar FogSequentialForward.fog[96].dispatcher externalJobs 3449609
scalar FogSequentialForward.fog[96].dispatcher remoteJobs 3449489
scalar FogSequentialForward.fog[96].dispatcher probeQueries 0
scalar FogSequentialForward.fog[96].dispatcher probeAnswers 0
scalar FogSequentialForward.fog[96].dispatcher droppedJobsSLA 265
scalar FogSequentialForward.fog[96].dispatcher jobs_class_1 3463910
scalar FogSequentialForward.fog[96].dispatcher remoteJobs_class_1 3449489
scalar FogSequentialForward.fog[96].dispatcher localJobs_class_1 14156
scalar FogSequentialForward.fog[96].dispatcher droppedJobsSLA_class_1 265
scalar FogSequentialForward.fog[96].server[0] rho 1
scalar FogSequentialForward.fog[96].server[0] congestionRatio 0
scalar FogSequentialForward.fog[96].server[0] totalJobs 14156
scalar FogSequentialForward.fog[96].server[0] droppedJobsQueue 954
scalar FogSequentialForward.fog[96].server[0] droppedJobsTimout 0
scalar FogSequentialForward.fog[96].server[0] droppedJobsSLA 8510
scalar FogSequentialForward.fog[96].server[0] droppedJobsTotal 9464
scalar FogSequentialForward.fog[97].dispatcher localJobs 14185
scalar FogSequentialForward.fog[97].dispatcher internalJobs 14259
scalar FogSequentialForward.fog[97].dispatcher externalJobs 3451401
scalar FogSequentialForward.fog[97].dispatcher remoteJobs 3451229
scalar FogSequentialForward.fog[97].dispatcher probeQueries 0
scalar FogSequentialForward.fog[97].dispatcher probeAnswers 0
scalar FogSequentialForward.fog[97].dispatcher droppedJobsSLA 246
scalar FogSequentialForward.fog[97].dispatcher jobs_class_1 3465660
scalar FogSequentialForward.fog[97].dispatcher remoteJobs_class_1 3451229
scalar FogSequentialForward.fog[97].dispatcher localJobs_class_1 14185
scalar FogSequentialForward.fog[97].dispatcher droppedJobsSLA_class_1 246
scalar FogSequentialForward.fog[97].server[0] rho 1
scalar FogSequentialForward.fog[97].server[0] congestionRatio 0
scalar FogSequentialForward.fog[97].server[0] totalJobs 14185
scalar FogSequentialForward.fog[97].server[0] droppedJobsQueue 955
scalar FogSequentialForward.fog[97].server[0] droppedJobsTimout 0
scalar FogSequentialForward.fog[97].server[0] droppedJobsSLA 8470
scalar FogSequentialForward.fog[97].server[0] droppedJobsTotal 9425
scalar FogSequentialForward.fog[98].dispatcher localJobs 14242
scalar FogSequentialForward.fog[98].dispatcher internalJobs 14221
scalar FogSequentialForward.fog[98].dispatcher externalJobs 3449707
scalar FogSequentialForward.fog[98].dispatcher remoteJobs 3449431
scalar FogSequentialForward.fog[98].dispatcher probeQueries 0
scalar FogSequentialForward.fog[98].dispatcher probeAnswers 0
scalar FogSequentialForward.fog[98].dispatcher droppedJobsSLA 255
scalar FogSequentialForward.fog[98].dispatcher jobs_class_1 3463928
scalar FogSequentialForward.fog[98].dispatcher remoteJobs_class_1 3449431
scalar FogSequentialForward.fog[98].dispatcher localJobs_class_1 14242
scalar FogSequentialForward.fog[98].dispatcher droppedJobsSLA_class_1 255
scalar FogSequentialForward.fog[98].server[0] rho 1
scalar FogSequentialForward.fog[98].server[0] congestionRatio 0
scalar FogSequentialForward.fog[98].server[0] totalJobs 14242
scalar FogSequentialForward.fog[98].server[0] droppedJobsQueue 964
scalar FogSequentialForward.fog[98].server[0] droppedJobsTimout 0
scalar FogSequentialForward.fog[98].server[0] droppedJobsSLA 8465
scalar FogSequentialForward.fog[98].server[0] droppedJobsTotal 9429
scalar FogSequentialForward.fog[99].dispatcher localJobs 14161
scalar FogSequentialForward.fog[99].dispatcher internalJobs 14421
scalar FogSequentialForward.fog[99].dispatcher externalJobs 3448223
scalar FogSequentialForward.fog[99].dispatcher remoteJobs 3448258
scalar FogSequentialForward.fog[99].dispatcher probeQueries 0
scalar FogSequentialForward.fog[99].dispatcher probeAnswers 0
scalar FogSequentialForward.fog[99].dispatcher droppedJobsSLA 225
scalar FogSequentialForward.fog[99].dispatcher jobs_class_1 3462644
scalar FogSequentialForward.fog[99].dispatcher remoteJobs_class_1 3448258
scalar FogSequentialForward.fog[99].dispatcher localJobs_class_1 14161
scalar FogSequentialForward.fog[99].dispatcher droppedJobsSLA_class_1 225
scalar FogSequentialForward.fog[99].server[0] rho 1
scalar FogSequentialForward.fog[99].server[0] congestionRatio 0
scalar FogSequentialForward.fog[99].server[0] totalJobs 14161
scalar FogSequentialForward.fog[99].server[0] droppedJobsQueue 957
scalar FogSequentialForward.fog[99].server[0] droppedJobsTimout 0
scalar FogSequentialForward.fog[99].server[0] droppedJobsSLA 8485
scalar FogSequentialForward.fog[99].server[0] droppedJobsTotal 9442
scalar FogSequentialForward.sink avg_responseTime_1 12.861462924345
scalar FogSequentialForward.sink p90_responseTime_1 1.573900233267
scalar FogSequentialForward.sink med_responseTime_1 1.573900233267
scalar FogSequentialForward.sink avg_delayTime_1 0
scalar FogSequentialForward.sink p90_delayTime_1 0
scalar FogSequentialForward.sink med_delayTime_1 0
scalar FogSequentialForward.sink avg_queuingTime_1 9.036965592494
scalar FogSequentialForward.sink p90_queuingTime_1 0
scalar FogSequentialForward.sink med_queuingTime_1 0
scalar FogSequentialForward.sink avg_serviceTime_1 1.6722446952824
scalar FogSequentialForward.sink p90_serviceTime_1 1.497033359468
scalar FogSequentialForward.sink med_serviceTime_1 1.497033359468
scalar FogSequentialForward.sink avg_balancerTime_1 2.1522526365681
scalar FogSequentialForward.sink p90_balancerTime_1 0
scalar FogSequentialForward.sink med_balancerTime_1 0
scalar FogSequentialForward.sink avg_balancerCount_1 129.87740338733
scalar FogSequentialForward.sink p90_balancerCount_1 1
scalar FogSequentialForward.sink med_balancerCount_1 1

