version 2
run Fog-mul_10-rho_08-thr_16-0-20190714-05:52:51-102769
attr configname Fog-mul_10-rho_08-thr_16
attr datetime 20190714-05:52:51
attr experiment Fog-mul_10-rho_08-thr_16
attr inifile FogSequentialForward.ini
attr iterationvars ""
attr iterationvarsf ""
attr measurement ""
attr network FogSequentialForward
attr processid 102769
attr repetition 0
attr replication #0
attr resultdir results
attr runnumber 0
attr seedset 0
param FogSequentialForward.proctimeMul 1.0
param FogSequentialForward.rho 0.8
param FogSequentialForward.fog[*].dispatcher.thr 16
param FogSequentialForward.nSources 100
param FogSequentialForward.rho 0.9
param FogSequentialForward.proctimeMul 1.0
param FogSequentialForward.source[*].appId 1
param FogSequentialForward.source[*].realTime true
param FogSequentialForward.source[*].multiHop true
param FogSequentialForward.fog[*].nServers 1
param FogSequentialForward.fog[*].dispatcher.fanOut 1
param FogSequentialForward.fog[*].server[*].timeSlice -1s
param FogSequentialForward.fog[*].server[*].timeout -1s
param FogSequentialForward.fog[*].server[*].capacity 20
param FogSequentialForward.fog[*].server[*].fifo true
param FogSequentialForward.fog[*].server[*].maxServiceTime -1s
param FogSequentialForward.fog[*].dispatcher.thr 1

scalar FogSequentialForward.fog[0].dispatcher localJobs 14396
scalar FogSequentialForward.fog[0].dispatcher internalJobs 14424
scalar FogSequentialForward.fog[0].dispatcher externalJobs 455500
scalar FogSequentialForward.fog[0].dispatcher remoteJobs 455528
scalar FogSequentialForward.fog[0].dispatcher probeQueries 0
scalar FogSequentialForward.fog[0].dispatcher probeAnswers 0
scalar FogSequentialForward.fog[0].dispatcher droppedJobsSLA 0
scalar FogSequentialForward.fog[0].dispatcher jobs_class_1 469924
scalar FogSequentialForward.fog[0].dispatcher remoteJobs_class_1 455528
scalar FogSequentialForward.fog[0].dispatcher localJobs_class_1 14396
scalar FogSequentialForward.fog[0].server[0] rho 1
scalar FogSequentialForward.fog[0].server[0] congestionRatio 0
scalar FogSequentialForward.fog[0].server[0] totalJobs 14396
scalar FogSequentialForward.fog[0].server[0] droppedJobsQueue 1757
scalar FogSequentialForward.fog[0].server[0] droppedJobsTimout 0
scalar FogSequentialForward.fog[0].server[0] droppedJobsSLA 8802
scalar FogSequentialForward.fog[0].server[0] droppedJobsTotal 10559
scalar FogSequentialForward.fog[1].dispatcher localJobs 14377
scalar FogSequentialForward.fog[1].dispatcher internalJobs 14297
scalar FogSequentialForward.fog[1].dispatcher externalJobs 455519
scalar FogSequentialForward.fog[1].dispatcher remoteJobs 455439
scalar FogSequentialForward.fog[1].dispatcher probeQueries 0
scalar FogSequentialForward.fog[1].dispatcher probeAnswers 0
scalar FogSequentialForward.fog[1].dispatcher droppedJobsSLA 0
scalar FogSequentialForward.fog[1].dispatcher jobs_class_1 469816
scalar FogSequentialForward.fog[1].dispatcher remoteJobs_class_1 455439
scalar FogSequentialForward.fog[1].dispatcher localJobs_class_1 14377
scalar FogSequentialForward.fog[1].server[0] rho 1
scalar FogSequentialForward.fog[1].server[0] congestionRatio 0
scalar FogSequentialForward.fog[1].server[0] totalJobs 14377
scalar FogSequentialForward.fog[1].server[0] droppedJobsQueue 1749
scalar FogSequentialForward.fog[1].server[0] droppedJobsTimout 0
scalar FogSequentialForward.fog[1].server[0] droppedJobsSLA 8743
scalar FogSequentialForward.fog[1].server[0] droppedJobsTotal 10492
scalar FogSequentialForward.fog[2].dispatcher localJobs 14421
scalar FogSequentialForward.fog[2].dispatcher internalJobs 14242
scalar FogSequentialForward.fog[2].dispatcher externalJobs 453996
scalar FogSequentialForward.fog[2].dispatcher remoteJobs 453817
scalar FogSequentialForward.fog[2].dispatcher probeQueries 0
scalar FogSequentialForward.fog[2].dispatcher probeAnswers 0
scalar FogSequentialForward.fog[2].dispatcher droppedJobsSLA 0
scalar FogSequentialForward.fog[2].dispatcher jobs_class_1 468238
scalar FogSequentialForward.fog[2].dispatcher remoteJobs_class_1 453817
scalar FogSequentialForward.fog[2].dispatcher localJobs_class_1 14421
scalar FogSequentialForward.fog[2].server[0] rho 1
scalar FogSequentialForward.fog[2].server[0] congestionRatio 0
scalar FogSequentialForward.fog[2].server[0] totalJobs 14421
scalar FogSequentialForward.fog[2].server[0] droppedJobsQueue 1776
scalar FogSequentialForward.fog[2].server[0] droppedJobsTimout 0
scalar FogSequentialForward.fog[2].server[0] droppedJobsSLA 8789
scalar FogSequentialForward.fog[2].server[0] droppedJobsTotal 10565
scalar FogSequentialForward.fog[3].dispatcher localJobs 14393
scalar FogSequentialForward.fog[3].dispatcher internalJobs 14405
scalar FogSequentialForward.fog[3].dispatcher externalJobs 454197
scalar FogSequentialForward.fog[3].dispatcher remoteJobs 454209
scalar FogSequentialForward.fog[3].dispatcher probeQueries 0
scalar FogSequentialForward.fog[3].dispatcher probeAnswers 0
scalar FogSequentialForward.fog[3].dispatcher droppedJobsSLA 0
scalar FogSequentialForward.fog[3].dispatcher jobs_class_1 468602
scalar FogSequentialForward.fog[3].dispatcher remoteJobs_class_1 454209
scalar FogSequentialForward.fog[3].dispatcher localJobs_class_1 14393
scalar FogSequentialForward.fog[3].server[0] rho 1
scalar FogSequentialForward.fog[3].server[0] congestionRatio 0
scalar FogSequentialForward.fog[3].server[0] totalJobs 14393
scalar FogSequentialForward.fog[3].server[0] droppedJobsQueue 1751
scalar FogSequentialForward.fog[3].server[0] droppedJobsTimout 0
scalar FogSequentialForward.fog[3].server[0] droppedJobsSLA 8804
scalar FogSequentialForward.fog[3].server[0] droppedJobsTotal 10555
scalar FogSequentialForward.fog[4].dispatcher localJobs 14436
scalar FogSequentialForward.fog[4].dispatcher internalJobs 14565
scalar FogSequentialForward.fog[4].dispatcher externalJobs 455190
scalar FogSequentialForward.fog[4].dispatcher remoteJobs 455319
scalar FogSequentialForward.fog[4].dispatcher probeQueries 0
scalar FogSequentialForward.fog[4].dispatcher probeAnswers 0
scalar FogSequentialForward.fog[4].dispatcher droppedJobsSLA 0
scalar FogSequentialForward.fog[4].dispatcher jobs_class_1 469755
scalar FogSequentialForward.fog[4].dispatcher remoteJobs_class_1 455319
scalar FogSequentialForward.fog[4].dispatcher localJobs_class_1 14436
scalar FogSequentialForward.fog[4].server[0] rho 0.99980068206787
scalar FogSequentialForward.fog[4].server[0] congestionRatio 0
scalar FogSequentialForward.fog[4].server[0] totalJobs 14436
scalar FogSequentialForward.fog[4].server[0] droppedJobsQueue 1777
scalar FogSequentialForward.fog[4].server[0] droppedJobsTimout 0
scalar FogSequentialForward.fog[4].server[0] droppedJobsSLA 8768
scalar FogSequentialForward.fog[4].server[0] droppedJobsTotal 10545
scalar FogSequentialForward.fog[5].dispatcher localJobs 14412
scalar FogSequentialForward.fog[5].dispatcher internalJobs 14478
scalar FogSequentialForward.fog[5].dispatcher externalJobs 455260
scalar FogSequentialForward.fog[5].dispatcher remoteJobs 455326
scalar FogSequentialForward.fog[5].dispatcher probeQueries 0
scalar FogSequentialForward.fog[5].dispatcher probeAnswers 0
scalar FogSequentialForward.fog[5].dispatcher droppedJobsSLA 0
scalar FogSequentialForward.fog[5].dispatcher jobs_class_1 469738
scalar FogSequentialForward.fog[5].dispatcher remoteJobs_class_1 455326
scalar FogSequentialForward.fog[5].dispatcher localJobs_class_1 14412
scalar FogSequentialForward.fog[5].server[0] rho 1
scalar FogSequentialForward.fog[5].server[0] congestionRatio 0
scalar FogSequentialForward.fog[5].server[0] totalJobs 14412
scalar FogSequentialForward.fog[5].server[0] droppedJobsQueue 1768
scalar FogSequentialForward.fog[5].server[0] droppedJobsTimout 0
scalar FogSequentialForward.fog[5].server[0] droppedJobsSLA 8810
scalar FogSequentialForward.fog[5].server[0] droppedJobsTotal 10578
scalar FogSequentialForward.fog[6].dispatcher localJobs 14396
scalar FogSequentialForward.fog[6].dispatcher internalJobs 14588
scalar FogSequentialForward.fog[6].dispatcher externalJobs 455434
scalar FogSequentialForward.fog[6].dispatcher remoteJobs 455626
scalar FogSequentialForward.fog[6].dispatcher probeQueries 0
scalar FogSequentialForward.fog[6].dispatcher probeAnswers 0
scalar FogSequentialForward.fog[6].dispatcher droppedJobsSLA 0
scalar FogSequentialForward.fog[6].dispatcher jobs_class_1 470022
scalar FogSequentialForward.fog[6].dispatcher remoteJobs_class_1 455626
scalar FogSequentialForward.fog[6].dispatcher localJobs_class_1 14396
scalar FogSequentialForward.fog[6].server[0] rho 1
scalar FogSequentialForward.fog[6].server[0] congestionRatio 0
scalar FogSequentialForward.fog[6].server[0] totalJobs 14396
scalar FogSequentialForward.fog[6].server[0] droppedJobsQueue 1754
scalar FogSequentialForward.fog[6].server[0] droppedJobsTimout 0
scalar FogSequentialForward.fog[6].server[0] droppedJobsSLA 8812
scalar FogSequentialForward.fog[6].server[0] droppedJobsTotal 10566
scalar FogSequentialForward.fog[7].dispatcher localJobs 14411
scalar FogSequentialForward.fog[7].dispatcher internalJobs 14189
scalar FogSequentialForward.fog[7].dispatcher externalJobs 455451
scalar FogSequentialForward.fog[7].dispatcher remoteJobs 455229
scalar FogSequentialForward.fog[7].dispatcher probeQueries 0
scalar FogSequentialForward.fog[7].dispatcher probeAnswers 0
scalar FogSequentialForward.fog[7].dispatcher droppedJobsSLA 0
scalar FogSequentialForward.fog[7].dispatcher jobs_class_1 469640
scalar FogSequentialForward.fog[7].dispatcher remoteJobs_class_1 455229
scalar FogSequentialForward.fog[7].dispatcher localJobs_class_1 14411
scalar FogSequentialForward.fog[7].server[0] rho 1
scalar FogSequentialForward.fog[7].server[0] congestionRatio 0
scalar FogSequentialForward.fog[7].server[0] totalJobs 14411
scalar FogSequentialForward.fog[7].server[0] droppedJobsQueue 1760
scalar FogSequentialForward.fog[7].server[0] droppedJobsTimout 0
scalar FogSequentialForward.fog[7].server[0] droppedJobsSLA 8804
scalar FogSequentialForward.fog[7].server[0] droppedJobsTotal 10564
scalar FogSequentialForward.fog[8].dispatcher localJobs 14395
scalar FogSequentialForward.fog[8].dispatcher internalJobs 14306
scalar FogSequentialForward.fog[8].dispatcher externalJobs 453962
scalar FogSequentialForward.fog[8].dispatcher remoteJobs 453873
scalar FogSequentialForward.fog[8].dispatcher probeQueries 0
scalar FogSequentialForward.fog[8].dispatcher probeAnswers 0
scalar FogSequentialForward.fog[8].dispatcher droppedJobsSLA 0
scalar FogSequentialForward.fog[8].dispatcher jobs_class_1 468268
scalar FogSequentialForward.fog[8].dispatcher remoteJobs_class_1 453873
scalar FogSequentialForward.fog[8].dispatcher localJobs_class_1 14395
scalar FogSequentialForward.fog[8].server[0] rho 0.99997115135193
scalar FogSequentialForward.fog[8].server[0] congestionRatio 0
scalar FogSequentialForward.fog[8].server[0] totalJobs 14395
scalar FogSequentialForward.fog[8].server[0] droppedJobsQueue 1770
scalar FogSequentialForward.fog[8].server[0] droppedJobsTimout 0
scalar FogSequentialForward.fog[8].server[0] droppedJobsSLA 8821
scalar FogSequentialForward.fog[8].server[0] droppedJobsTotal 10591
scalar FogSequentialForward.fog[9].dispatcher localJobs 14408
scalar FogSequentialForward.fog[9].dispatcher internalJobs 14316
scalar FogSequentialForward.fog[9].dispatcher externalJobs 455258
scalar FogSequentialForward.fog[9].dispatcher remoteJobs 455166
scalar FogSequentialForward.fog[9].dispatcher probeQueries 0
scalar FogSequentialForward.fog[9].dispatcher probeAnswers 0
scalar FogSequentialForward.fog[9].dispatcher droppedJobsSLA 0
scalar FogSequentialForward.fog[9].dispatcher jobs_class_1 469574
scalar FogSequentialForward.fog[9].dispatcher remoteJobs_class_1 455166
scalar FogSequentialForward.fog[9].dispatcher localJobs_class_1 14408
scalar FogSequentialForward.fog[9].server[0] rho 1
scalar FogSequentialForward.fog[9].server[0] congestionRatio 0
scalar FogSequentialForward.fog[9].server[0] totalJobs 14408
scalar FogSequentialForward.fog[9].server[0] droppedJobsQueue 1755
scalar FogSequentialForward.fog[9].server[0] droppedJobsTimout 0
scalar FogSequentialForward.fog[9].server[0] droppedJobsSLA 8791
scalar FogSequentialForward.fog[9].server[0] droppedJobsTotal 10546
scalar FogSequentialForward.fog[10].dispatcher localJobs 14419
scalar FogSequentialForward.fog[10].dispatcher internalJobs 14343
scalar FogSequentialForward.fog[10].dispatcher externalJobs 454391
scalar FogSequentialForward.fog[10].dispatcher remoteJobs 454315
scalar FogSequentialForward.fog[10].dispatcher probeQueries 0
scalar FogSequentialForward.fog[10].dispatcher probeAnswers 0
scalar FogSequentialForward.fog[10].dispatcher droppedJobsSLA 0
scalar FogSequentialForward.fog[10].dispatcher jobs_class_1 468734
scalar FogSequentialForward.fog[10].dispatcher remoteJobs_class_1 454315
scalar FogSequentialForward.fog[10].dispatcher localJobs_class_1 14419
scalar FogSequentialForward.fog[10].server[0] rho 1
scalar FogSequentialForward.fog[10].server[0] congestionRatio 0
scalar FogSequentialForward.fog[10].server[0] totalJobs 14419
scalar FogSequentialForward.fog[10].server[0] droppedJobsQueue 1766
scalar FogSequentialForward.fog[10].server[0] droppedJobsTimout 0
scalar FogSequentialForward.fog[10].server[0] droppedJobsSLA 8817
scalar FogSequentialForward.fog[10].server[0] droppedJobsTotal 10583
scalar FogSequentialForward.fog[11].dispatcher localJobs 14405
scalar FogSequentialForward.fog[11].dispatcher internalJobs 14450
scalar FogSequentialForward.fog[11].dispatcher externalJobs 454165
scalar FogSequentialForward.fog[11].dispatcher remoteJobs 454210
scalar FogSequentialForward.fog[11].dispatcher probeQueries 0
scalar FogSequentialForward.fog[11].dispatcher probeAnswers 0
scalar FogSequentialForward.fog[11].dispatcher droppedJobsSLA 0
scalar FogSequentialForward.fog[11].dispatcher jobs_class_1 468615
scalar FogSequentialForward.fog[11].dispatcher remoteJobs_class_1 454210
scalar FogSequentialForward.fog[11].dispatcher localJobs_class_1 14405
scalar FogSequentialForward.fog[11].server[0] rho 0.99993789196014
scalar FogSequentialForward.fog[11].server[0] congestionRatio 0
scalar FogSequentialForward.fog[11].server[0] totalJobs 14405
scalar FogSequentialForward.fog[11].server[0] droppedJobsQueue 1756
scalar FogSequentialForward.fog[11].server[0] droppedJobsTimout 0
scalar FogSequentialForward.fog[11].server[0] droppedJobsSLA 8777
scalar FogSequentialForward.fog[11].server[0] droppedJobsTotal 10533
scalar FogSequentialForward.fog[12].dispatcher localJobs 14412
scalar FogSequentialForward.fog[12].dispatcher internalJobs 14339
scalar FogSequentialForward.fog[12].dispatcher externalJobs 455886
scalar FogSequentialForward.fog[12].dispatcher remoteJobs 455813
scalar FogSequentialForward.fog[12].dispatcher probeQueries 0
scalar FogSequentialForward.fog[12].dispatcher probeAnswers 0
scalar FogSequentialForward.fog[12].dispatcher droppedJobsSLA 0
scalar FogSequentialForward.fog[12].dispatcher jobs_class_1 470225
scalar FogSequentialForward.fog[12].dispatcher remoteJobs_class_1 455813
scalar FogSequentialForward.fog[12].dispatcher localJobs_class_1 14412
scalar FogSequentialForward.fog[12].server[0] rho 0.99992370605469
scalar FogSequentialForward.fog[12].server[0] congestionRatio 0
scalar FogSequentialForward.fog[12].server[0] totalJobs 14412
scalar FogSequentialForward.fog[12].server[0] droppedJobsQueue 1769
scalar FogSequentialForward.fog[12].server[0] droppedJobsTimout 0
scalar FogSequentialForward.fog[12].server[0] droppedJobsSLA 8802
scalar FogSequentialForward.fog[12].server[0] droppedJobsTotal 10571
scalar FogSequentialForward.fog[13].dispatcher localJobs 14420
scalar FogSequentialForward.fog[13].dispatcher internalJobs 14515
scalar FogSequentialForward.fog[13].dispatcher externalJobs 454883
scalar FogSequentialForward.fog[13].dispatcher remoteJobs 454978
scalar FogSequentialForward.fog[13].dispatcher probeQueries 0
scalar FogSequentialForward.fog[13].dispatcher probeAnswers 0
scalar FogSequentialForward.fog[13].dispatcher droppedJobsSLA 0
scalar FogSequentialForward.fog[13].dispatcher jobs_class_1 469398
scalar FogSequentialForward.fog[13].dispatcher remoteJobs_class_1 454978
scalar FogSequentialForward.fog[13].dispatcher localJobs_class_1 14420
scalar FogSequentialForward.fog[13].server[0] rho 1
scalar FogSequentialForward.fog[13].server[0] congestionRatio 0
scalar FogSequentialForward.fog[13].server[0] totalJobs 14420
scalar FogSequentialForward.fog[13].server[0] droppedJobsQueue 1771
scalar FogSequentialForward.fog[13].server[0] droppedJobsTimout 0
scalar FogSequentialForward.fog[13].server[0] droppedJobsSLA 8812
scalar FogSequentialForward.fog[13].server[0] droppedJobsTotal 10583
scalar FogSequentialForward.fog[14].dispatcher localJobs 14434
scalar FogSequentialForward.fog[14].dispatcher internalJobs 14462
scalar FogSequentialForward.fog[14].dispatcher externalJobs 455053
scalar FogSequentialForward.fog[14].dispatcher remoteJobs 455081
scalar FogSequentialForward.fog[14].dispatcher probeQueries 0
scalar FogSequentialForward.fog[14].dispatcher probeAnswers 0
scalar FogSequentialForward.fog[14].dispatcher droppedJobsSLA 0
scalar FogSequentialForward.fog[14].dispatcher jobs_class_1 469515
scalar FogSequentialForward.fog[14].dispatcher remoteJobs_class_1 455081
scalar FogSequentialForward.fog[14].dispatcher localJobs_class_1 14434
scalar FogSequentialForward.fog[14].server[0] rho 1
scalar FogSequentialForward.fog[14].server[0] congestionRatio 0
scalar FogSequentialForward.fog[14].server[0] totalJobs 14434
scalar FogSequentialForward.fog[14].server[0] droppedJobsQueue 1770
scalar FogSequentialForward.fog[14].server[0] droppedJobsTimout 0
scalar FogSequentialForward.fog[14].server[0] droppedJobsSLA 8806
scalar FogSequentialForward.fog[14].server[0] droppedJobsTotal 10576
scalar FogSequentialForward.fog[15].dispatcher localJobs 14448
scalar FogSequentialForward.fog[15].dispatcher internalJobs 14331
scalar FogSequentialForward.fog[15].dispatcher externalJobs 455853
scalar FogSequentialForward.fog[15].dispatcher remoteJobs 455736
scalar FogSequentialForward.fog[15].dispatcher probeQueries 0
scalar FogSequentialForward.fog[15].dispatcher probeAnswers 0
scalar FogSequentialForward.fog[15].dispatcher droppedJobsSLA 0
scalar FogSequentialForward.fog[15].dispatcher jobs_class_1 470184
scalar FogSequentialForward.fog[15].dispatcher remoteJobs_class_1 455736
scalar FogSequentialForward.fog[15].dispatcher localJobs_class_1 14448
scalar FogSequentialForward.fog[15].server[0] rho 1
scalar FogSequentialForward.fog[15].server[0] congestionRatio 0
scalar FogSequentialForward.fog[15].server[0] totalJobs 14448
scalar FogSequentialForward.fog[15].server[0] droppedJobsQueue 1781
scalar FogSequentialForward.fog[15].server[0] droppedJobsTimout 0
scalar FogSequentialForward.fog[15].server[0] droppedJobsSLA 8854
scalar FogSequentialForward.fog[15].server[0] droppedJobsTotal 10635
scalar FogSequentialForward.fog[16].dispatcher localJobs 14407
scalar FogSequentialForward.fog[16].dispatcher internalJobs 14291
scalar FogSequentialForward.fog[16].dispatcher externalJobs 453941
scalar FogSequentialForward.fog[16].dispatcher remoteJobs 453825
scalar FogSequentialForward.fog[16].dispatcher probeQueries 0
scalar FogSequentialForward.fog[16].dispatcher probeAnswers 0
scalar FogSequentialForward.fog[16].dispatcher droppedJobsSLA 0
scalar FogSequentialForward.fog[16].dispatcher jobs_class_1 468232
scalar FogSequentialForward.fog[16].dispatcher remoteJobs_class_1 453825
scalar FogSequentialForward.fog[16].dispatcher localJobs_class_1 14407
scalar FogSequentialForward.fog[16].server[0] rho 1
scalar FogSequentialForward.fog[16].server[0] congestionRatio 0
scalar FogSequentialForward.fog[16].server[0] totalJobs 14407
scalar FogSequentialForward.fog[16].server[0] droppedJobsQueue 1755
scalar FogSequentialForward.fog[16].server[0] droppedJobsTimout 0
scalar FogSequentialForward.fog[16].server[0] droppedJobsSLA 8779
scalar FogSequentialForward.fog[16].server[0] droppedJobsTotal 10534
scalar FogSequentialForward.fog[17].dispatcher localJobs 14431
scalar FogSequentialForward.fog[17].dispatcher internalJobs 14337
scalar FogSequentialForward.fog[17].dispatcher externalJobs 455372
scalar FogSequentialForward.fog[17].dispatcher remoteJobs 455278
scalar FogSequentialForward.fog[17].dispatcher probeQueries 0
scalar FogSequentialForward.fog[17].dispatcher probeAnswers 0
scalar FogSequentialForward.fog[17].dispatcher droppedJobsSLA 0
scalar FogSequentialForward.fog[17].dispatcher jobs_class_1 469709
scalar FogSequentialForward.fog[17].dispatcher remoteJobs_class_1 455278
scalar FogSequentialForward.fog[17].dispatcher localJobs_class_1 14431
scalar FogSequentialForward.fog[17].server[0] rho 1
scalar FogSequentialForward.fog[17].server[0] congestionRatio 0
scalar FogSequentialForward.fog[17].server[0] totalJobs 14431
scalar FogSequentialForward.fog[17].server[0] droppedJobsQueue 1779
scalar FogSequentialForward.fog[17].server[0] droppedJobsTimout 0
scalar FogSequentialForward.fog[17].server[0] droppedJobsSLA 8817
scalar FogSequentialForward.fog[17].server[0] droppedJobsTotal 10596
scalar FogSequentialForward.fog[18].dispatcher localJobs 14429
scalar FogSequentialForward.fog[18].dispatcher internalJobs 14672
scalar FogSequentialForward.fog[18].dispatcher externalJobs 455246
scalar FogSequentialForward.fog[18].dispatcher remoteJobs 455489
scalar FogSequentialForward.fog[18].dispatcher probeQueries 0
scalar FogSequentialForward.fog[18].dispatcher probeAnswers 0
scalar FogSequentialForward.fog[18].dispatcher droppedJobsSLA 0
scalar FogSequentialForward.fog[18].dispatcher jobs_class_1 469918
scalar FogSequentialForward.fog[18].dispatcher remoteJobs_class_1 455489
scalar FogSequentialForward.fog[18].dispatcher localJobs_class_1 14429
scalar FogSequentialForward.fog[18].server[0] rho 1
scalar FogSequentialForward.fog[18].server[0] congestionRatio 0
scalar FogSequentialForward.fog[18].server[0] totalJobs 14429
scalar FogSequentialForward.fog[18].server[0] droppedJobsQueue 1773
scalar FogSequentialForward.fog[18].server[0] droppedJobsTimout 0
scalar FogSequentialForward.fog[18].server[0] droppedJobsSLA 8813
scalar FogSequentialForward.fog[18].server[0] droppedJobsTotal 10586
scalar FogSequentialForward.fog[19].dispatcher localJobs 14419
scalar FogSequentialForward.fog[19].dispatcher internalJobs 14508
scalar FogSequentialForward.fog[19].dispatcher externalJobs 455031
scalar FogSequentialForward.fog[19].dispatcher remoteJobs 455120
scalar FogSequentialForward.fog[19].dispatcher probeQueries 0
scalar FogSequentialForward.fog[19].dispatcher probeAnswers 0
scalar FogSequentialForward.fog[19].dispatcher droppedJobsSLA 0
scalar FogSequentialForward.fog[19].dispatcher jobs_class_1 469539
scalar FogSequentialForward.fog[19].dispatcher remoteJobs_class_1 455120
scalar FogSequentialForward.fog[19].dispatcher localJobs_class_1 14419
scalar FogSequentialForward.fog[19].server[0] rho 1
scalar FogSequentialForward.fog[19].server[0] congestionRatio 0
scalar FogSequentialForward.fog[19].server[0] totalJobs 14419
scalar FogSequentialForward.fog[19].server[0] droppedJobsQueue 1767
scalar FogSequentialForward.fog[19].server[0] droppedJobsTimout 0
scalar FogSequentialForward.fog[19].server[0] droppedJobsSLA 8797
scalar FogSequentialForward.fog[19].server[0] droppedJobsTotal 10564
scalar FogSequentialForward.fog[20].dispatcher localJobs 14437
scalar FogSequentialForward.fog[20].dispatcher internalJobs 14567
scalar FogSequentialForward.fog[20].dispatcher externalJobs 454759
scalar FogSequentialForward.fog[20].dispatcher remoteJobs 454889
scalar FogSequentialForward.fog[20].dispatcher probeQueries 0
scalar FogSequentialForward.fog[20].dispatcher probeAnswers 0
scalar FogSequentialForward.fog[20].dispatcher droppedJobsSLA 0
scalar FogSequentialForward.fog[20].dispatcher jobs_class_1 469326
scalar FogSequentialForward.fog[20].dispatcher remoteJobs_class_1 454889
scalar FogSequentialForward.fog[20].dispatcher localJobs_class_1 14437
scalar FogSequentialForward.fog[20].server[0] rho 1
scalar FogSequentialForward.fog[20].server[0] congestionRatio 0
scalar FogSequentialForward.fog[20].server[0] totalJobs 14437
scalar FogSequentialForward.fog[20].server[0] droppedJobsQueue 1780
scalar FogSequentialForward.fog[20].server[0] droppedJobsTimout 0
scalar FogSequentialForward.fog[20].server[0] droppedJobsSLA 8836
scalar FogSequentialForward.fog[20].server[0] droppedJobsTotal 10616
scalar FogSequentialForward.fog[21].dispatcher localJobs 14385
scalar FogSequentialForward.fog[21].dispatcher internalJobs 14422
scalar FogSequentialForward.fog[21].dispatcher externalJobs 453595
scalar FogSequentialForward.fog[21].dispatcher remoteJobs 453632
scalar FogSequentialForward.fog[21].dispatcher probeQueries 0
scalar FogSequentialForward.fog[21].dispatcher probeAnswers 0
scalar FogSequentialForward.fog[21].dispatcher droppedJobsSLA 0
scalar FogSequentialForward.fog[21].dispatcher jobs_class_1 468017
scalar FogSequentialForward.fog[21].dispatcher remoteJobs_class_1 453632
scalar FogSequentialForward.fog[21].dispatcher localJobs_class_1 14385
scalar FogSequentialForward.fog[21].server[0] rho 1
scalar FogSequentialForward.fog[21].server[0] congestionRatio 0
scalar FogSequentialForward.fog[21].server[0] totalJobs 14385
scalar FogSequentialForward.fog[21].server[0] droppedJobsQueue 1761
scalar FogSequentialForward.fog[21].server[0] droppedJobsTimout 0
scalar FogSequentialForward.fog[21].server[0] droppedJobsSLA 8789
scalar FogSequentialForward.fog[21].server[0] droppedJobsTotal 10550
scalar FogSequentialForward.fog[22].dispatcher localJobs 14415
scalar FogSequentialForward.fog[22].dispatcher internalJobs 14447
scalar FogSequentialForward.fog[22].dispatcher externalJobs 455466
scalar FogSequentialForward.fog[22].dispatcher remoteJobs 455498
scalar FogSequentialForward.fog[22].dispatcher probeQueries 0
scalar FogSequentialForward.fog[22].dispatcher probeAnswers 0
scalar FogSequentialForward.fog[22].dispatcher droppedJobsSLA 0
scalar FogSequentialForward.fog[22].dispatcher jobs_class_1 469913
scalar FogSequentialForward.fog[22].dispatcher remoteJobs_class_1 455498
scalar FogSequentialForward.fog[22].dispatcher localJobs_class_1 14415
scalar FogSequentialForward.fog[22].server[0] rho 1
scalar FogSequentialForward.fog[22].server[0] congestionRatio 0
scalar FogSequentialForward.fog[22].server[0] totalJobs 14415
scalar FogSequentialForward.fog[22].server[0] droppedJobsQueue 1757
scalar FogSequentialForward.fog[22].server[0] droppedJobsTimout 0
scalar FogSequentialForward.fog[22].server[0] droppedJobsSLA 8819
scalar FogSequentialForward.fog[22].server[0] droppedJobsTotal 10576
scalar FogSequentialForward.fog[23].dispatcher localJobs 14430
scalar FogSequentialForward.fog[23].dispatcher internalJobs 14469
scalar FogSequentialForward.fog[23].dispatcher externalJobs 455227
scalar FogSequentialForward.fog[23].dispatcher remoteJobs 455266
scalar FogSequentialForward.fog[23].dispatcher probeQueries 0
scalar FogSequentialForward.fog[23].dispatcher probeAnswers 0
scalar FogSequentialForward.fog[23].dispatcher droppedJobsSLA 0
scalar FogSequentialForward.fog[23].dispatcher jobs_class_1 469696
scalar FogSequentialForward.fog[23].dispatcher remoteJobs_class_1 455266
scalar FogSequentialForward.fog[23].dispatcher localJobs_class_1 14430
scalar FogSequentialForward.fog[23].server[0] rho 1
scalar FogSequentialForward.fog[23].server[0] congestionRatio 0
scalar FogSequentialForward.fog[23].server[0] totalJobs 14430
scalar FogSequentialForward.fog[23].server[0] droppedJobsQueue 1769
scalar FogSequentialForward.fog[23].server[0] droppedJobsTimout 0
scalar FogSequentialForward.fog[23].server[0] droppedJobsSLA 8753
scalar FogSequentialForward.fog[23].server[0] droppedJobsTotal 10522
scalar FogSequentialForward.fog[24].dispatcher localJobs 14411
scalar FogSequentialForward.fog[24].dispatcher internalJobs 14403
scalar FogSequentialForward.fog[24].dispatcher externalJobs 455485
scalar FogSequentialForward.fog[24].dispatcher remoteJobs 455477
scalar FogSequentialForward.fog[24].dispatcher probeQueries 0
scalar FogSequentialForward.fog[24].dispatcher probeAnswers 0
scalar FogSequentialForward.fog[24].dispatcher droppedJobsSLA 0
scalar FogSequentialForward.fog[24].dispatcher jobs_class_1 469888
scalar FogSequentialForward.fog[24].dispatcher remoteJobs_class_1 455477
scalar FogSequentialForward.fog[24].dispatcher localJobs_class_1 14411
scalar FogSequentialForward.fog[24].server[0] rho 1
scalar FogSequentialForward.fog[24].server[0] congestionRatio 0
scalar FogSequentialForward.fog[24].server[0] totalJobs 14411
scalar FogSequentialForward.fog[24].server[0] droppedJobsQueue 1760
scalar FogSequentialForward.fog[24].server[0] droppedJobsTimout 0
scalar FogSequentialForward.fog[24].server[0] droppedJobsSLA 8800
scalar FogSequentialForward.fog[24].server[0] droppedJobsTotal 10560
scalar FogSequentialForward.fog[25].dispatcher localJobs 14367
scalar FogSequentialForward.fog[25].dispatcher internalJobs 14386
scalar FogSequentialForward.fog[25].dispatcher externalJobs 455007
scalar FogSequentialForward.fog[25].dispatcher remoteJobs 455025
scalar FogSequentialForward.fog[25].dispatcher probeQueries 0
scalar FogSequentialForward.fog[25].dispatcher probeAnswers 0
scalar FogSequentialForward.fog[25].dispatcher droppedJobsSLA 1
scalar FogSequentialForward.fog[25].dispatcher jobs_class_1 469393
scalar FogSequentialForward.fog[25].dispatcher remoteJobs_class_1 455025
scalar FogSequentialForward.fog[25].dispatcher localJobs_class_1 14367
scalar FogSequentialForward.fog[25].dispatcher droppedJobsSLA_class_1 1
scalar FogSequentialForward.fog[25].server[0] rho 0.99999630451202
scalar FogSequentialForward.fog[25].server[0] congestionRatio 0
scalar FogSequentialForward.fog[25].server[0] totalJobs 14367
scalar FogSequentialForward.fog[25].server[0] droppedJobsQueue 1731
scalar FogSequentialForward.fog[25].server[0] droppedJobsTimout 0
scalar FogSequentialForward.fog[25].server[0] droppedJobsSLA 8737
scalar FogSequentialForward.fog[25].server[0] droppedJobsTotal 10468
scalar FogSequentialForward.fog[26].dispatcher localJobs 14400
scalar FogSequentialForward.fog[26].dispatcher internalJobs 14248
scalar FogSequentialForward.fog[26].dispatcher externalJobs 455475
scalar FogSequentialForward.fog[26].dispatcher remoteJobs 455323
scalar FogSequentialForward.fog[26].dispatcher probeQueries 0
scalar FogSequentialForward.fog[26].dispatcher probeAnswers 0
scalar FogSequentialForward.fog[26].dispatcher droppedJobsSLA 0
scalar FogSequentialForward.fog[26].dispatcher jobs_class_1 469723
scalar FogSequentialForward.fog[26].dispatcher remoteJobs_class_1 455323
scalar FogSequentialForward.fog[26].dispatcher localJobs_class_1 14400
scalar FogSequentialForward.fog[26].server[0] rho 1
scalar FogSequentialForward.fog[26].server[0] congestionRatio 0
scalar FogSequentialForward.fog[26].server[0] totalJobs 14400
scalar FogSequentialForward.fog[26].server[0] droppedJobsQueue 1767
scalar FogSequentialForward.fog[26].server[0] droppedJobsTimout 0
scalar FogSequentialForward.fog[26].server[0] droppedJobsSLA 8802
scalar FogSequentialForward.fog[26].server[0] droppedJobsTotal 10569
scalar FogSequentialForward.fog[27].dispatcher localJobs 14386
scalar FogSequentialForward.fog[27].dispatcher internalJobs 14418
scalar FogSequentialForward.fog[27].dispatcher externalJobs 455388
scalar FogSequentialForward.fog[27].dispatcher remoteJobs 455420
scalar FogSequentialForward.fog[27].dispatcher probeQueries 0
scalar FogSequentialForward.fog[27].dispatcher probeAnswers 0
scalar FogSequentialForward.fog[27].dispatcher droppedJobsSLA 0
scalar FogSequentialForward.fog[27].dispatcher jobs_class_1 469806
scalar FogSequentialForward.fog[27].dispatcher remoteJobs_class_1 455420
scalar FogSequentialForward.fog[27].dispatcher localJobs_class_1 14386
scalar FogSequentialForward.fog[27].server[0] rho 0.99998915195465
scalar FogSequentialForward.fog[27].server[0] congestionRatio 0
scalar FogSequentialForward.fog[27].server[0] totalJobs 14386
scalar FogSequentialForward.fog[27].server[0] droppedJobsQueue 1771
scalar FogSequentialForward.fog[27].server[0] droppedJobsTimout 0
scalar FogSequentialForward.fog[27].server[0] droppedJobsSLA 8796
scalar FogSequentialForward.fog[27].server[0] droppedJobsTotal 10567
scalar FogSequentialForward.fog[28].dispatcher localJobs 14437
scalar FogSequentialForward.fog[28].dispatcher internalJobs 14259
scalar FogSequentialForward.fog[28].dispatcher externalJobs 455507
scalar FogSequentialForward.fog[28].dispatcher remoteJobs 455329
scalar FogSequentialForward.fog[28].dispatcher probeQueries 0
scalar FogSequentialForward.fog[28].dispatcher probeAnswers 0
scalar FogSequentialForward.fog[28].dispatcher droppedJobsSLA 0
scalar FogSequentialForward.fog[28].dispatcher jobs_class_1 469766
scalar FogSequentialForward.fog[28].dispatcher remoteJobs_class_1 455329
scalar FogSequentialForward.fog[28].dispatcher localJobs_class_1 14437
scalar FogSequentialForward.fog[28].server[0] rho 1
scalar FogSequentialForward.fog[28].server[0] congestionRatio 0
scalar FogSequentialForward.fog[28].server[0] totalJobs 14437
scalar FogSequentialForward.fog[28].server[0] droppedJobsQueue 1777
scalar FogSequentialForward.fog[28].server[0] droppedJobsTimout 0
scalar FogSequentialForward.fog[28].server[0] droppedJobsSLA 8806
scalar FogSequentialForward.fog[28].server[0] droppedJobsTotal 10583
scalar FogSequentialForward.fog[29].dispatcher localJobs 14390
scalar FogSequentialForward.fog[29].dispatcher internalJobs 14493
scalar FogSequentialForward.fog[29].dispatcher externalJobs 454970
scalar FogSequentialForward.fog[29].dispatcher remoteJobs 455073
scalar FogSequentialForward.fog[29].dispatcher probeQueries 0
scalar FogSequentialForward.fog[29].dispatcher probeAnswers 0
scalar FogSequentialForward.fog[29].dispatcher droppedJobsSLA 0
scalar FogSequentialForward.fog[29].dispatcher jobs_class_1 469463
scalar FogSequentialForward.fog[29].dispatcher remoteJobs_class_1 455073
scalar FogSequentialForward.fog[29].dispatcher localJobs_class_1 14390
scalar FogSequentialForward.fog[29].server[0] rho 1
scalar FogSequentialForward.fog[29].server[0] congestionRatio 0
scalar FogSequentialForward.fog[29].server[0] totalJobs 14390
scalar FogSequentialForward.fog[29].server[0] droppedJobsQueue 1747
scalar FogSequentialForward.fog[29].server[0] droppedJobsTimout 0
scalar FogSequentialForward.fog[29].server[0] droppedJobsSLA 8786
scalar FogSequentialForward.fog[29].server[0] droppedJobsTotal 10533
scalar FogSequentialForward.fog[30].dispatcher localJobs 14410
scalar FogSequentialForward.fog[30].dispatcher internalJobs 14374
scalar FogSequentialForward.fog[30].dispatcher externalJobs 455244
scalar FogSequentialForward.fog[30].dispatcher remoteJobs 455208
scalar FogSequentialForward.fog[30].dispatcher probeQueries 0
scalar FogSequentialForward.fog[30].dispatcher probeAnswers 0
scalar FogSequentialForward.fog[30].dispatcher droppedJobsSLA 0
scalar FogSequentialForward.fog[30].dispatcher jobs_class_1 469618
scalar FogSequentialForward.fog[30].dispatcher remoteJobs_class_1 455208
scalar FogSequentialForward.fog[30].dispatcher localJobs_class_1 14410
scalar FogSequentialForward.fog[30].server[0] rho 1
scalar FogSequentialForward.fog[30].server[0] congestionRatio 0
scalar FogSequentialForward.fog[30].server[0] totalJobs 14410
scalar FogSequentialForward.fog[30].server[0] droppedJobsQueue 1762
scalar FogSequentialForward.fog[30].server[0] droppedJobsTimout 0
scalar FogSequentialForward.fog[30].server[0] droppedJobsSLA 8793
scalar FogSequentialForward.fog[30].server[0] droppedJobsTotal 10555
scalar FogSequentialForward.fog[31].dispatcher localJobs 14436
scalar FogSequentialForward.fog[31].dispatcher internalJobs 14365
scalar FogSequentialForward.fog[31].dispatcher externalJobs 454899
scalar FogSequentialForward.fog[31].dispatcher remoteJobs 454828
scalar FogSequentialForward.fog[31].dispatcher probeQueries 0
scalar FogSequentialForward.fog[31].dispatcher probeAnswers 0
scalar FogSequentialForward.fog[31].dispatcher droppedJobsSLA 0
scalar FogSequentialForward.fog[31].dispatcher jobs_class_1 469264
scalar FogSequentialForward.fog[31].dispatcher remoteJobs_class_1 454828
scalar FogSequentialForward.fog[31].dispatcher localJobs_class_1 14436
scalar FogSequentialForward.fog[31].server[0] rho 1
scalar FogSequentialForward.fog[31].server[0] congestionRatio 0
scalar FogSequentialForward.fog[31].server[0] totalJobs 14436
scalar FogSequentialForward.fog[31].server[0] droppedJobsQueue 1767
scalar FogSequentialForward.fog[31].server[0] droppedJobsTimout 0
scalar FogSequentialForward.fog[31].server[0] droppedJobsSLA 8780
scalar FogSequentialForward.fog[31].server[0] droppedJobsTotal 10547
scalar FogSequentialForward.fog[32].dispatcher localJobs 14433
scalar FogSequentialForward.fog[32].dispatcher internalJobs 14453
scalar FogSequentialForward.fog[32].dispatcher externalJobs 454916
scalar FogSequentialForward.fog[32].dispatcher remoteJobs 454936
scalar FogSequentialForward.fog[32].dispatcher probeQueries 0
scalar FogSequentialForward.fog[32].dispatcher probeAnswers 0
scalar FogSequentialForward.fog[32].dispatcher droppedJobsSLA 0
scalar FogSequentialForward.fog[32].dispatcher jobs_class_1 469369
scalar FogSequentialForward.fog[32].dispatcher remoteJobs_class_1 454936
scalar FogSequentialForward.fog[32].dispatcher localJobs_class_1 14433
scalar FogSequentialForward.fog[32].server[0] rho 1
scalar FogSequentialForward.fog[32].server[0] congestionRatio 0
scalar FogSequentialForward.fog[32].server[0] totalJobs 14433
scalar FogSequentialForward.fog[32].server[0] droppedJobsQueue 1775
scalar FogSequentialForward.fog[32].server[0] droppedJobsTimout 0
scalar FogSequentialForward.fog[32].server[0] droppedJobsSLA 8815
scalar FogSequentialForward.fog[32].server[0] droppedJobsTotal 10590
scalar FogSequentialForward.fog[33].dispatcher localJobs 14413
scalar FogSequentialForward.fog[33].dispatcher internalJobs 14364
scalar FogSequentialForward.fog[33].dispatcher externalJobs 455063
scalar FogSequentialForward.fog[33].dispatcher remoteJobs 455014
scalar FogSequentialForward.fog[33].dispatcher probeQueries 0
scalar FogSequentialForward.fog[33].dispatcher probeAnswers 0
scalar FogSequentialForward.fog[33].dispatcher droppedJobsSLA 0
scalar FogSequentialForward.fog[33].dispatcher jobs_class_1 469427
scalar FogSequentialForward.fog[33].dispatcher remoteJobs_class_1 455014
scalar FogSequentialForward.fog[33].dispatcher localJobs_class_1 14413
scalar FogSequentialForward.fog[33].server[0] rho 1
scalar FogSequentialForward.fog[33].server[0] congestionRatio 0
scalar FogSequentialForward.fog[33].server[0] totalJobs 14413
scalar FogSequentialForward.fog[33].server[0] droppedJobsQueue 1770
scalar FogSequentialForward.fog[33].server[0] droppedJobsTimout 0
scalar FogSequentialForward.fog[33].server[0] droppedJobsSLA 8814
scalar FogSequentialForward.fog[33].server[0] droppedJobsTotal 10584
scalar FogSequentialForward.fog[34].dispatcher localJobs 14417
scalar FogSequentialForward.fog[34].dispatcher internalJobs 14672
scalar FogSequentialForward.fog[34].dispatcher externalJobs 456228
scalar FogSequentialForward.fog[34].dispatcher remoteJobs 456483
scalar FogSequentialForward.fog[34].dispatcher probeQueries 0
scalar FogSequentialForward.fog[34].dispatcher probeAnswers 0
scalar FogSequentialForward.fog[34].dispatcher droppedJobsSLA 0
scalar FogSequentialForward.fog[34].dispatcher jobs_class_1 470900
scalar FogSequentialForward.fog[34].dispatcher remoteJobs_class_1 456483
scalar FogSequentialForward.fog[34].dispatcher localJobs_class_1 14417
scalar FogSequentialForward.fog[34].server[0] rho 0.99984353780746
scalar FogSequentialForward.fog[34].server[0] congestionRatio 0
scalar FogSequentialForward.fog[34].server[0] totalJobs 14417
scalar FogSequentialForward.fog[34].server[0] droppedJobsQueue 1765
scalar FogSequentialForward.fog[34].server[0] droppedJobsTimout 0
scalar FogSequentialForward.fog[34].server[0] droppedJobsSLA 8812
scalar FogSequentialForward.fog[34].server[0] droppedJobsTotal 10577
scalar FogSequentialForward.fog[35].dispatcher localJobs 14413
scalar FogSequentialForward.fog[35].dispatcher internalJobs 14253
scalar FogSequentialForward.fog[35].dispatcher externalJobs 454602
scalar FogSequentialForward.fog[35].dispatcher remoteJobs 454442
scalar FogSequentialForward.fog[35].dispatcher probeQueries 0
scalar FogSequentialForward.fog[35].dispatcher probeAnswers 0
scalar FogSequentialForward.fog[35].dispatcher droppedJobsSLA 0
scalar FogSequentialForward.fog[35].dispatcher jobs_class_1 468855
scalar FogSequentialForward.fog[35].dispatcher remoteJobs_class_1 454442
scalar FogSequentialForward.fog[35].dispatcher localJobs_class_1 14413
scalar FogSequentialForward.fog[35].server[0] rho 1
scalar FogSequentialForward.fog[35].server[0] congestionRatio 0
scalar FogSequentialForward.fog[35].server[0] totalJobs 14413
scalar FogSequentialForward.fog[35].server[0] droppedJobsQueue 1754
scalar FogSequentialForward.fog[35].server[0] droppedJobsTimout 0
scalar FogSequentialForward.fog[35].server[0] droppedJobsSLA 8795
scalar FogSequentialForward.fog[35].server[0] droppedJobsTotal 10549
scalar FogSequentialForward.fog[36].dispatcher localJobs 14398
scalar FogSequentialForward.fog[36].dispatcher internalJobs 14339
scalar FogSequentialForward.fog[36].dispatcher externalJobs 454517
scalar FogSequentialForward.fog[36].dispatcher remoteJobs 454458
scalar FogSequentialForward.fog[36].dispatcher probeQueries 0
scalar FogSequentialForward.fog[36].dispatcher probeAnswers 0
scalar FogSequentialForward.fog[36].dispatcher droppedJobsSLA 0
scalar FogSequentialForward.fog[36].dispatcher jobs_class_1 468856
scalar FogSequentialForward.fog[36].dispatcher remoteJobs_class_1 454458
scalar FogSequentialForward.fog[36].dispatcher localJobs_class_1 14398
scalar FogSequentialForward.fog[36].server[0] rho 1
scalar FogSequentialForward.fog[36].server[0] congestionRatio 0
scalar FogSequentialForward.fog[36].server[0] totalJobs 14398
scalar FogSequentialForward.fog[36].server[0] droppedJobsQueue 1757
scalar FogSequentialForward.fog[36].server[0] droppedJobsTimout 0
scalar FogSequentialForward.fog[36].server[0] droppedJobsSLA 8802
scalar FogSequentialForward.fog[36].server[0] droppedJobsTotal 10559
scalar FogSequentialForward.fog[37].dispatcher localJobs 14445
scalar FogSequentialForward.fog[37].dispatcher internalJobs 14668
scalar FogSequentialForward.fog[37].dispatcher externalJobs 454804
scalar FogSequentialForward.fog[37].dispatcher remoteJobs 455027
scalar FogSequentialForward.fog[37].dispatcher probeQueries 0
scalar FogSequentialForward.fog[37].dispatcher probeAnswers 0
scalar FogSequentialForward.fog[37].dispatcher droppedJobsSLA 0
scalar FogSequentialForward.fog[37].dispatcher jobs_class_1 469472
scalar FogSequentialForward.fog[37].dispatcher remoteJobs_class_1 455027
scalar FogSequentialForward.fog[37].dispatcher localJobs_class_1 14445
scalar FogSequentialForward.fog[37].server[0] rho 1
scalar FogSequentialForward.fog[37].server[0] congestionRatio 0
scalar FogSequentialForward.fog[37].server[0] totalJobs 14445
scalar FogSequentialForward.fog[37].server[0] droppedJobsQueue 1787
scalar FogSequentialForward.fog[37].server[0] droppedJobsTimout 0
scalar FogSequentialForward.fog[37].server[0] droppedJobsSLA 8816
scalar FogSequentialForward.fog[37].server[0] droppedJobsTotal 10603
scalar FogSequentialForward.fog[38].dispatcher localJobs 14398
scalar FogSequentialForward.fog[38].dispatcher internalJobs 14389
scalar FogSequentialForward.fog[38].dispatcher externalJobs 454921
scalar FogSequentialForward.fog[38].dispatcher remoteJobs 454912
scalar FogSequentialForward.fog[38].dispatcher probeQueries 0
scalar FogSequentialForward.fog[38].dispatcher probeAnswers 0
scalar FogSequentialForward.fog[38].dispatcher droppedJobsSLA 0
scalar FogSequentialForward.fog[38].dispatcher jobs_class_1 469310
scalar FogSequentialForward.fog[38].dispatcher remoteJobs_class_1 454912
scalar FogSequentialForward.fog[38].dispatcher localJobs_class_1 14398
scalar FogSequentialForward.fog[38].server[0] rho 1
scalar FogSequentialForward.fog[38].server[0] congestionRatio 0
scalar FogSequentialForward.fog[38].server[0] totalJobs 14398
scalar FogSequentialForward.fog[38].server[0] droppedJobsQueue 1757
scalar FogSequentialForward.fog[38].server[0] droppedJobsTimout 0
scalar FogSequentialForward.fog[38].server[0] droppedJobsSLA 8784
scalar FogSequentialForward.fog[38].server[0] droppedJobsTotal 10541
scalar FogSequentialForward.fog[39].dispatcher localJobs 14389
scalar FogSequentialForward.fog[39].dispatcher internalJobs 14330
scalar FogSequentialForward.fog[39].dispatcher externalJobs 455214
scalar FogSequentialForward.fog[39].dispatcher remoteJobs 455155
scalar FogSequentialForward.fog[39].dispatcher probeQueries 0
scalar FogSequentialForward.fog[39].dispatcher probeAnswers 0
scalar FogSequentialForward.fog[39].dispatcher droppedJobsSLA 0
scalar FogSequentialForward.fog[39].dispatcher jobs_class_1 469544
scalar FogSequentialForward.fog[39].dispatcher remoteJobs_class_1 455155
scalar FogSequentialForward.fog[39].dispatcher localJobs_class_1 14389
scalar FogSequentialForward.fog[39].server[0] rho 1
scalar FogSequentialForward.fog[39].server[0] congestionRatio 0
scalar FogSequentialForward.fog[39].server[0] totalJobs 14389
scalar FogSequentialForward.fog[39].server[0] droppedJobsQueue 1758
scalar FogSequentialForward.fog[39].server[0] droppedJobsTimout 0
scalar FogSequentialForward.fog[39].server[0] droppedJobsSLA 8766
scalar FogSequentialForward.fog[39].server[0] droppedJobsTotal 10524
scalar FogSequentialForward.fog[40].dispatcher localJobs 14424
scalar FogSequentialForward.fog[40].dispatcher internalJobs 14283
scalar FogSequentialForward.fog[40].dispatcher externalJobs 454046
scalar FogSequentialForward.fog[40].dispatcher remoteJobs 453905
scalar FogSequentialForward.fog[40].dispatcher probeQueries 0
scalar FogSequentialForward.fog[40].dispatcher probeAnswers 0
scalar FogSequentialForward.fog[40].dispatcher droppedJobsSLA 0
scalar FogSequentialForward.fog[40].dispatcher jobs_class_1 468329
scalar FogSequentialForward.fog[40].dispatcher remoteJobs_class_1 453905
scalar FogSequentialForward.fog[40].dispatcher localJobs_class_1 14424
scalar FogSequentialForward.fog[40].server[0] rho 1
scalar FogSequentialForward.fog[40].server[0] congestionRatio 0
scalar FogSequentialForward.fog[40].server[0] totalJobs 14424
scalar FogSequentialForward.fog[40].server[0] droppedJobsQueue 1766
scalar FogSequentialForward.fog[40].server[0] droppedJobsTimout 0
scalar FogSequentialForward.fog[40].server[0] droppedJobsSLA 8827
scalar FogSequentialForward.fog[40].server[0] droppedJobsTotal 10593
scalar FogSequentialForward.fog[41].dispatcher localJobs 14439
scalar FogSequentialForward.fog[41].dispatcher internalJobs 14322
scalar FogSequentialForward.fog[41].dispatcher externalJobs 454632
scalar FogSequentialForward.fog[41].dispatcher remoteJobs 454515
scalar FogSequentialForward.fog[41].dispatcher probeQueries 0
scalar FogSequentialForward.fog[41].dispatcher probeAnswers 0
scalar FogSequentialForward.fog[41].dispatcher droppedJobsSLA 0
scalar FogSequentialForward.fog[41].dispatcher jobs_class_1 468954
scalar FogSequentialForward.fog[41].dispatcher remoteJobs_class_1 454515
scalar FogSequentialForward.fog[41].dispatcher localJobs_class_1 14439
scalar FogSequentialForward.fog[41].server[0] rho 1
scalar FogSequentialForward.fog[41].server[0] congestionRatio 0
scalar FogSequentialForward.fog[41].server[0] totalJobs 14439
scalar FogSequentialForward.fog[41].server[0] droppedJobsQueue 1780
scalar FogSequentialForward.fog[41].server[0] droppedJobsTimout 0
scalar FogSequentialForward.fog[41].server[0] droppedJobsSLA 8846
scalar FogSequentialForward.fog[41].server[0] droppedJobsTotal 10626
scalar FogSequentialForward.fog[42].dispatcher localJobs 14408
scalar FogSequentialForward.fog[42].dispatcher internalJobs 14522
scalar FogSequentialForward.fog[42].dispatcher externalJobs 454694
scalar FogSequentialForward.fog[42].dispatcher remoteJobs 454808
scalar FogSequentialForward.fog[42].dispatcher probeQueries 0
scalar FogSequentialForward.fog[42].dispatcher probeAnswers 0
scalar FogSequentialForward.fog[42].dispatcher droppedJobsSLA 0
scalar FogSequentialForward.fog[42].dispatcher jobs_class_1 469216
scalar FogSequentialForward.fog[42].dispatcher remoteJobs_class_1 454808
scalar FogSequentialForward.fog[42].dispatcher localJobs_class_1 14408
scalar FogSequentialForward.fog[42].server[0] rho 1
scalar FogSequentialForward.fog[42].server[0] congestionRatio 0
scalar FogSequentialForward.fog[42].server[0] totalJobs 14408
scalar FogSequentialForward.fog[42].server[0] droppedJobsQueue 1760
scalar FogSequentialForward.fog[42].server[0] droppedJobsTimout 0
scalar FogSequentialForward.fog[42].server[0] droppedJobsSLA 8786
scalar FogSequentialForward.fog[42].server[0] droppedJobsTotal 10546
scalar FogSequentialForward.fog[43].dispatcher localJobs 14400
scalar FogSequentialForward.fog[43].dispatcher internalJobs 14493
scalar FogSequentialForward.fog[43].dispatcher externalJobs 455285
scalar FogSequentialForward.fog[43].dispatcher remoteJobs 455378
scalar FogSequentialForward.fog[43].dispatcher probeQueries 0
scalar FogSequentialForward.fog[43].dispatcher probeAnswers 0
scalar FogSequentialForward.fog[43].dispatcher droppedJobsSLA 0
scalar FogSequentialForward.fog[43].dispatcher jobs_class_1 469778
scalar FogSequentialForward.fog[43].dispatcher remoteJobs_class_1 455378
scalar FogSequentialForward.fog[43].dispatcher localJobs_class_1 14400
scalar FogSequentialForward.fog[43].server[0] rho 1
scalar FogSequentialForward.fog[43].server[0] congestionRatio 0
scalar FogSequentialForward.fog[43].server[0] totalJobs 14400
scalar FogSequentialForward.fog[43].server[0] droppedJobsQueue 1771
scalar FogSequentialForward.fog[43].server[0] droppedJobsTimout 0
scalar FogSequentialForward.fog[43].server[0] droppedJobsSLA 8806
scalar FogSequentialForward.fog[43].server[0] droppedJobsTotal 10577
scalar FogSequentialForward.fog[44].dispatcher localJobs 14404
scalar FogSequentialForward.fog[44].dispatcher internalJobs 14586
scalar FogSequentialForward.fog[44].dispatcher externalJobs 454189
scalar FogSequentialForward.fog[44].dispatcher remoteJobs 454371
scalar FogSequentialForward.fog[44].dispatcher probeQueries 0
scalar FogSequentialForward.fog[44].dispatcher probeAnswers 0
scalar FogSequentialForward.fog[44].dispatcher droppedJobsSLA 0
scalar FogSequentialForward.fog[44].dispatcher jobs_class_1 468775
scalar FogSequentialForward.fog[44].dispatcher remoteJobs_class_1 454371
scalar FogSequentialForward.fog[44].dispatcher localJobs_class_1 14404
scalar FogSequentialForward.fog[44].server[0] rho 1
scalar FogSequentialForward.fog[44].server[0] congestionRatio 0
scalar FogSequentialForward.fog[44].server[0] totalJobs 14404
scalar FogSequentialForward.fog[44].server[0] droppedJobsQueue 1760
scalar FogSequentialForward.fog[44].server[0] droppedJobsTimout 0
scalar FogSequentialForward.fog[44].server[0] droppedJobsSLA 8783
scalar FogSequentialForward.fog[44].server[0] droppedJobsTotal 10543
scalar FogSequentialForward.fog[45].dispatcher localJobs 14415
scalar FogSequentialForward.fog[45].dispatcher internalJobs 14373
scalar FogSequentialForward.fog[45].dispatcher externalJobs 454551
scalar FogSequentialForward.fog[45].dispatcher remoteJobs 454509
scalar FogSequentialForward.fog[45].dispatcher probeQueries 0
scalar FogSequentialForward.fog[45].dispatcher probeAnswers 0
scalar FogSequentialForward.fog[45].dispatcher droppedJobsSLA 0
scalar FogSequentialForward.fog[45].dispatcher jobs_class_1 468924
scalar FogSequentialForward.fog[45].dispatcher remoteJobs_class_1 454509
scalar FogSequentialForward.fog[45].dispatcher localJobs_class_1 14415
scalar FogSequentialForward.fog[45].server[0] rho 1
scalar FogSequentialForward.fog[45].server[0] congestionRatio 0
scalar FogSequentialForward.fog[45].server[0] totalJobs 14415
scalar FogSequentialForward.fog[45].server[0] droppedJobsQueue 1774
scalar FogSequentialForward.fog[45].server[0] droppedJobsTimout 0
scalar FogSequentialForward.fog[45].server[0] droppedJobsSLA 8814
scalar FogSequentialForward.fog[45].server[0] droppedJobsTotal 10588
scalar FogSequentialForward.fog[46].dispatcher localJobs 14381
scalar FogSequentialForward.fog[46].dispatcher internalJobs 14543
scalar FogSequentialForward.fog[46].dispatcher externalJobs 454663
scalar FogSequentialForward.fog[46].dispatcher remoteJobs 454825
scalar FogSequentialForward.fog[46].dispatcher probeQueries 0
scalar FogSequentialForward.fog[46].dispatcher probeAnswers 0
scalar FogSequentialForward.fog[46].dispatcher droppedJobsSLA 0
scalar FogSequentialForward.fog[46].dispatcher jobs_class_1 469206
scalar FogSequentialForward.fog[46].dispatcher remoteJobs_class_1 454825
scalar FogSequentialForward.fog[46].dispatcher localJobs_class_1 14381
scalar FogSequentialForward.fog[46].server[0] rho 0.99989628791809
scalar FogSequentialForward.fog[46].server[0] congestionRatio 0
scalar FogSequentialForward.fog[46].server[0] totalJobs 14381
scalar FogSequentialForward.fog[46].server[0] droppedJobsQueue 1758
scalar FogSequentialForward.fog[46].server[0] droppedJobsTimout 0
scalar FogSequentialForward.fog[46].server[0] droppedJobsSLA 8758
scalar FogSequentialForward.fog[46].server[0] droppedJobsTotal 10516
scalar FogSequentialForward.fog[47].dispatcher localJobs 14393
scalar FogSequentialForward.fog[47].dispatcher internalJobs 14442
scalar FogSequentialForward.fog[47].dispatcher externalJobs 455046
scalar FogSequentialForward.fog[47].dispatcher remoteJobs 455095
scalar FogSequentialForward.fog[47].dispatcher probeQueries 0
scalar FogSequentialForward.fog[47].dispatcher probeAnswers 0
scalar FogSequentialForward.fog[47].dispatcher droppedJobsSLA 0
scalar FogSequentialForward.fog[47].dispatcher jobs_class_1 469488
scalar FogSequentialForward.fog[47].dispatcher remoteJobs_class_1 455095
scalar FogSequentialForward.fog[47].dispatcher localJobs_class_1 14393
scalar FogSequentialForward.fog[47].server[0] rho 1
scalar FogSequentialForward.fog[47].server[0] congestionRatio 0
scalar FogSequentialForward.fog[47].server[0] totalJobs 14393
scalar FogSequentialForward.fog[47].server[0] droppedJobsQueue 1763
scalar FogSequentialForward.fog[47].server[0] droppedJobsTimout 0
scalar FogSequentialForward.fog[47].server[0] droppedJobsSLA 8798
scalar FogSequentialForward.fog[47].server[0] droppedJobsTotal 10561
scalar FogSequentialForward.fog[48].dispatcher localJobs 14423
scalar FogSequentialForward.fog[48].dispatcher internalJobs 14557
scalar FogSequentialForward.fog[48].dispatcher externalJobs 455088
scalar FogSequentialForward.fog[48].dispatcher remoteJobs 455222
scalar FogSequentialForward.fog[48].dispatcher probeQueries 0
scalar FogSequentialForward.fog[48].dispatcher probeAnswers 0
scalar FogSequentialForward.fog[48].dispatcher droppedJobsSLA 0
scalar FogSequentialForward.fog[48].dispatcher jobs_class_1 469645
scalar FogSequentialForward.fog[48].dispatcher remoteJobs_class_1 455222
scalar FogSequentialForward.fog[48].dispatcher localJobs_class_1 14423
scalar FogSequentialForward.fog[48].server[0] rho 0.99997609853745
scalar FogSequentialForward.fog[48].server[0] congestionRatio 0
scalar FogSequentialForward.fog[48].server[0] totalJobs 14423
scalar FogSequentialForward.fog[48].server[0] droppedJobsQueue 1768
scalar FogSequentialForward.fog[48].server[0] droppedJobsTimout 0
scalar FogSequentialForward.fog[48].server[0] droppedJobsSLA 8829
scalar FogSequentialForward.fog[48].server[0] droppedJobsTotal 10597
scalar FogSequentialForward.fog[49].dispatcher localJobs 14417
scalar FogSequentialForward.fog[49].dispatcher internalJobs 14390
scalar FogSequentialForward.fog[49].dispatcher externalJobs 455043
scalar FogSequentialForward.fog[49].dispatcher remoteJobs 455016
scalar FogSequentialForward.fog[49].dispatcher probeQueries 0
scalar FogSequentialForward.fog[49].dispatcher probeAnswers 0
scalar FogSequentialForward.fog[49].dispatcher droppedJobsSLA 0
scalar FogSequentialForward.fog[49].dispatcher jobs_class_1 469433
scalar FogSequentialForward.fog[49].dispatcher remoteJobs_class_1 455016
scalar FogSequentialForward.fog[49].dispatcher localJobs_class_1 14417
scalar FogSequentialForward.fog[49].server[0] rho 1
scalar FogSequentialForward.fog[49].server[0] congestionRatio 0
scalar FogSequentialForward.fog[49].server[0] totalJobs 14417
scalar FogSequentialForward.fog[49].server[0] droppedJobsQueue 1764
scalar FogSequentialForward.fog[49].server[0] droppedJobsTimout 0
scalar FogSequentialForward.fog[49].server[0] droppedJobsSLA 8769
scalar FogSequentialForward.fog[49].server[0] droppedJobsTotal 10533
scalar FogSequentialForward.fog[50].dispatcher localJobs 14414
scalar FogSequentialForward.fog[50].dispatcher internalJobs 14433
scalar FogSequentialForward.fog[50].dispatcher externalJobs 453833
scalar FogSequentialForward.fog[50].dispatcher remoteJobs 453852
scalar FogSequentialForward.fog[50].dispatcher probeQueries 0
scalar FogSequentialForward.fog[50].dispatcher probeAnswers 0
scalar FogSequentialForward.fog[50].dispatcher droppedJobsSLA 0
scalar FogSequentialForward.fog[50].dispatcher jobs_class_1 468266
scalar FogSequentialForward.fog[50].dispatcher remoteJobs_class_1 453852
scalar FogSequentialForward.fog[50].dispatcher localJobs_class_1 14414
scalar FogSequentialForward.fog[50].server[0] rho 1
scalar FogSequentialForward.fog[50].server[0] congestionRatio 0
scalar FogSequentialForward.fog[50].server[0] totalJobs 14414
scalar FogSequentialForward.fog[50].server[0] droppedJobsQueue 1762
scalar FogSequentialForward.fog[50].server[0] droppedJobsTimout 0
scalar FogSequentialForward.fog[50].server[0] droppedJobsSLA 8750
scalar FogSequentialForward.fog[50].server[0] droppedJobsTotal 10512
scalar FogSequentialForward.fog[51].dispatcher localJobs 14413
scalar FogSequentialForward.fog[51].dispatcher internalJobs 14502
scalar FogSequentialForward.fog[51].dispatcher externalJobs 454268
scalar FogSequentialForward.fog[51].dispatcher remoteJobs 454357
scalar FogSequentialForward.fog[51].dispatcher probeQueries 0
scalar FogSequentialForward.fog[51].dispatcher probeAnswers 0
scalar FogSequentialForward.fog[51].dispatcher droppedJobsSLA 0
scalar FogSequentialForward.fog[51].dispatcher jobs_class_1 468770
scalar FogSequentialForward.fog[51].dispatcher remoteJobs_class_1 454357
scalar FogSequentialForward.fog[51].dispatcher localJobs_class_1 14413
scalar FogSequentialForward.fog[51].server[0] rho 1
scalar FogSequentialForward.fog[51].server[0] congestionRatio 0
scalar FogSequentialForward.fog[51].server[0] totalJobs 14413
scalar FogSequentialForward.fog[51].server[0] droppedJobsQueue 1776
scalar FogSequentialForward.fog[51].server[0] droppedJobsTimout 0
scalar FogSequentialForward.fog[51].server[0] droppedJobsSLA 8848
scalar FogSequentialForward.fog[51].server[0] droppedJobsTotal 10624
scalar FogSequentialForward.fog[52].dispatcher localJobs 14426
scalar FogSequentialForward.fog[52].dispatcher internalJobs 14530
scalar FogSequentialForward.fog[52].dispatcher externalJobs 455969
scalar FogSequentialForward.fog[52].dispatcher remoteJobs 456073
scalar FogSequentialForward.fog[52].dispatcher probeQueries 0
scalar FogSequentialForward.fog[52].dispatcher probeAnswers 0
scalar FogSequentialForward.fog[52].dispatcher droppedJobsSLA 0
scalar FogSequentialForward.fog[52].dispatcher jobs_class_1 470499
scalar FogSequentialForward.fog[52].dispatcher remoteJobs_class_1 456073
scalar FogSequentialForward.fog[52].dispatcher localJobs_class_1 14426
scalar FogSequentialForward.fog[52].server[0] rho 1
scalar FogSequentialForward.fog[52].server[0] congestionRatio 0
scalar FogSequentialForward.fog[52].server[0] totalJobs 14426
scalar FogSequentialForward.fog[52].server[0] droppedJobsQueue 1773
scalar FogSequentialForward.fog[52].server[0] droppedJobsTimout 0
scalar FogSequentialForward.fog[52].server[0] droppedJobsSLA 8801
scalar FogSequentialForward.fog[52].server[0] droppedJobsTotal 10574
scalar FogSequentialForward.fog[53].dispatcher localJobs 14412
scalar FogSequentialForward.fog[53].dispatcher internalJobs 14364
scalar FogSequentialForward.fog[53].dispatcher externalJobs 454797
scalar FogSequentialForward.fog[53].dispatcher remoteJobs 454749
scalar FogSequentialForward.fog[53].dispatcher probeQueries 0
scalar FogSequentialForward.fog[53].dispatcher probeAnswers 0
scalar FogSequentialForward.fog[53].dispatcher droppedJobsSLA 0
scalar FogSequentialForward.fog[53].dispatcher jobs_class_1 469161
scalar FogSequentialForward.fog[53].dispatcher remoteJobs_class_1 454749
scalar FogSequentialForward.fog[53].dispatcher localJobs_class_1 14412
scalar FogSequentialForward.fog[53].server[0] rho 1
scalar FogSequentialForward.fog[53].server[0] congestionRatio 0
scalar FogSequentialForward.fog[53].server[0] totalJobs 14412
scalar FogSequentialForward.fog[53].server[0] droppedJobsQueue 1770
scalar FogSequentialForward.fog[53].server[0] droppedJobsTimout 0
scalar FogSequentialForward.fog[53].server[0] droppedJobsSLA 8793
scalar FogSequentialForward.fog[53].server[0] droppedJobsTotal 10563
scalar FogSequentialForward.fog[54].dispatcher localJobs 14423
scalar FogSequentialForward.fog[54].dispatcher internalJobs 14336
scalar FogSequentialForward.fog[54].dispatcher externalJobs 456818
scalar FogSequentialForward.fog[54].dispatcher remoteJobs 456731
scalar FogSequentialForward.fog[54].dispatcher probeQueries 0
scalar FogSequentialForward.fog[54].dispatcher probeAnswers 0
scalar FogSequentialForward.fog[54].dispatcher droppedJobsSLA 0
scalar FogSequentialForward.fog[54].dispatcher jobs_class_1 471154
scalar FogSequentialForward.fog[54].dispatcher remoteJobs_class_1 456731
scalar FogSequentialForward.fog[54].dispatcher localJobs_class_1 14423
scalar FogSequentialForward.fog[54].server[0] rho 1
scalar FogSequentialForward.fog[54].server[0] congestionRatio 0
scalar FogSequentialForward.fog[54].server[0] totalJobs 14423
scalar FogSequentialForward.fog[54].server[0] droppedJobsQueue 1766
scalar FogSequentialForward.fog[54].server[0] droppedJobsTimout 0
scalar FogSequentialForward.fog[54].server[0] droppedJobsSLA 8813
scalar FogSequentialForward.fog[54].server[0] droppedJobsTotal 10579
scalar FogSequentialForward.fog[55].dispatcher localJobs 14405
scalar FogSequentialForward.fog[55].dispatcher internalJobs 14463
scalar FogSequentialForward.fog[55].dispatcher externalJobs 455174
scalar FogSequentialForward.fog[55].dispatcher remoteJobs 455232
scalar FogSequentialForward.fog[55].dispatcher probeQueries 0
scalar FogSequentialForward.fog[55].dispatcher probeAnswers 0
scalar FogSequentialForward.fog[55].dispatcher droppedJobsSLA 0
scalar FogSequentialForward.fog[55].dispatcher jobs_class_1 469637
scalar FogSequentialForward.fog[55].dispatcher remoteJobs_class_1 455232
scalar FogSequentialForward.fog[55].dispatcher localJobs_class_1 14405
scalar FogSequentialForward.fog[55].server[0] rho 1
scalar FogSequentialForward.fog[55].server[0] congestionRatio 0
scalar FogSequentialForward.fog[55].server[0] totalJobs 14405
scalar FogSequentialForward.fog[55].server[0] droppedJobsQueue 1767
scalar FogSequentialForward.fog[55].server[0] droppedJobsTimout 0
scalar FogSequentialForward.fog[55].server[0] droppedJobsSLA 8838
scalar FogSequentialForward.fog[55].server[0] droppedJobsTotal 10605
scalar FogSequentialForward.fog[56].dispatcher localJobs 14421
scalar FogSequentialForward.fog[56].dispatcher internalJobs 14175
scalar FogSequentialForward.fog[56].dispatcher externalJobs 456763
scalar FogSequentialForward.fog[56].dispatcher remoteJobs 456517
scalar FogSequentialForward.fog[56].dispatcher probeQueries 0
scalar FogSequentialForward.fog[56].dispatcher probeAnswers 0
scalar FogSequentialForward.fog[56].dispatcher droppedJobsSLA 0
scalar FogSequentialForward.fog[56].dispatcher jobs_class_1 470938
scalar FogSequentialForward.fog[56].dispatcher remoteJobs_class_1 456517
scalar FogSequentialForward.fog[56].dispatcher localJobs_class_1 14421
scalar FogSequentialForward.fog[56].server[0] rho 1
scalar FogSequentialForward.fog[56].server[0] congestionRatio 0
scalar FogSequentialForward.fog[56].server[0] totalJobs 14421
scalar FogSequentialForward.fog[56].server[0] droppedJobsQueue 1773
scalar FogSequentialForward.fog[56].server[0] droppedJobsTimout 0
scalar FogSequentialForward.fog[56].server[0] droppedJobsSLA 8794
scalar FogSequentialForward.fog[56].server[0] droppedJobsTotal 10567
scalar FogSequentialForward.fog[57].dispatcher localJobs 14431
scalar FogSequentialForward.fog[57].dispatcher internalJobs 14515
scalar FogSequentialForward.fog[57].dispatcher externalJobs 453579
scalar FogSequentialForward.fog[57].dispatcher remoteJobs 453663
scalar FogSequentialForward.fog[57].dispatcher probeQueries 0
scalar FogSequentialForward.fog[57].dispatcher probeAnswers 0
scalar FogSequentialForward.fog[57].dispatcher droppedJobsSLA 0
scalar FogSequentialForward.fog[57].dispatcher jobs_class_1 468094
scalar FogSequentialForward.fog[57].dispatcher remoteJobs_class_1 453663
scalar FogSequentialForward.fog[57].dispatcher localJobs_class_1 14431
scalar FogSequentialForward.fog[57].server[0] rho 0.99997842311859
scalar FogSequentialForward.fog[57].server[0] congestionRatio 0
scalar FogSequentialForward.fog[57].server[0] totalJobs 14431
scalar FogSequentialForward.fog[57].server[0] droppedJobsQueue 1763
scalar FogSequentialForward.fog[57].server[0] droppedJobsTimout 0
scalar FogSequentialForward.fog[57].server[0] droppedJobsSLA 8768
scalar FogSequentialForward.fog[57].server[0] droppedJobsTotal 10531
scalar FogSequentialForward.fog[58].dispatcher localJobs 14433
scalar FogSequentialForward.fog[58].dispatcher internalJobs 14454
scalar FogSequentialForward.fog[58].dispatcher externalJobs 454384
scalar FogSequentialForward.fog[58].dispatcher remoteJobs 454405
scalar FogSequentialForward.fog[58].dispatcher probeQueries 0
scalar FogSequentialForward.fog[58].dispatcher probeAnswers 0
scalar FogSequentialForward.fog[58].dispatcher droppedJobsSLA 0
scalar FogSequentialForward.fog[58].dispatcher jobs_class_1 468838
scalar FogSequentialForward.fog[58].dispatcher remoteJobs_class_1 454405
scalar FogSequentialForward.fog[58].dispatcher localJobs_class_1 14433
scalar FogSequentialForward.fog[58].server[0] rho 0.9998996257782
scalar FogSequentialForward.fog[58].server[0] congestionRatio 0
scalar FogSequentialForward.fog[58].server[0] totalJobs 14433
scalar FogSequentialForward.fog[58].server[0] droppedJobsQueue 1779
scalar FogSequentialForward.fog[58].server[0] droppedJobsTimout 0
scalar FogSequentialForward.fog[58].server[0] droppedJobsSLA 8853
scalar FogSequentialForward.fog[58].server[0] droppedJobsTotal 10632
scalar FogSequentialForward.fog[59].dispatcher localJobs 14421
scalar FogSequentialForward.fog[59].dispatcher internalJobs 14254
scalar FogSequentialForward.fog[59].dispatcher externalJobs 455160
scalar FogSequentialForward.fog[59].dispatcher remoteJobs 454993
scalar FogSequentialForward.fog[59].dispatcher probeQueries 0
scalar FogSequentialForward.fog[59].dispatcher probeAnswers 0
scalar FogSequentialForward.fog[59].dispatcher droppedJobsSLA 0
scalar FogSequentialForward.fog[59].dispatcher jobs_class_1 469414
scalar FogSequentialForward.fog[59].dispatcher remoteJobs_class_1 454993
scalar FogSequentialForward.fog[59].dispatcher localJobs_class_1 14421
scalar FogSequentialForward.fog[59].server[0] rho 1
scalar FogSequentialForward.fog[59].server[0] congestionRatio 0
scalar FogSequentialForward.fog[59].server[0] totalJobs 14421
scalar FogSequentialForward.fog[59].server[0] droppedJobsQueue 1776
scalar FogSequentialForward.fog[59].server[0] droppedJobsTimout 0
scalar FogSequentialForward.fog[59].server[0] droppedJobsSLA 8805
scalar FogSequentialForward.fog[59].server[0] droppedJobsTotal 10581
scalar FogSequentialForward.fog[60].dispatcher localJobs 14407
scalar FogSequentialForward.fog[60].dispatcher internalJobs 14249
scalar FogSequentialForward.fog[60].dispatcher externalJobs 454003
scalar FogSequentialForward.fog[60].dispatcher remoteJobs 453845
scalar FogSequentialForward.fog[60].dispatcher probeQueries 0
scalar FogSequentialForward.fog[60].dispatcher probeAnswers 0
scalar FogSequentialForward.fog[60].dispatcher droppedJobsSLA 0
scalar FogSequentialForward.fog[60].dispatcher jobs_class_1 468252
scalar FogSequentialForward.fog[60].dispatcher remoteJobs_class_1 453845
scalar FogSequentialForward.fog[60].dispatcher localJobs_class_1 14407
scalar FogSequentialForward.fog[60].server[0] rho 1
scalar FogSequentialForward.fog[60].server[0] congestionRatio 0
scalar FogSequentialForward.fog[60].server[0] totalJobs 14407
scalar FogSequentialForward.fog[60].server[0] droppedJobsQueue 1768
scalar FogSequentialForward.fog[60].server[0] droppedJobsTimout 0
scalar FogSequentialForward.fog[60].server[0] droppedJobsSLA 8791
scalar FogSequentialForward.fog[60].server[0] droppedJobsTotal 10559
scalar FogSequentialForward.fog[61].dispatcher localJobs 14421
scalar FogSequentialForward.fog[61].dispatcher internalJobs 14532
scalar FogSequentialForward.fog[61].dispatcher externalJobs 455073
scalar FogSequentialForward.fog[61].dispatcher remoteJobs 455184
scalar FogSequentialForward.fog[61].dispatcher probeQueries 0
scalar FogSequentialForward.fog[61].dispatcher probeAnswers 0
scalar FogSequentialForward.fog[61].dispatcher droppedJobsSLA 0
scalar FogSequentialForward.fog[61].dispatcher jobs_class_1 469605
scalar FogSequentialForward.fog[61].dispatcher remoteJobs_class_1 455184
scalar FogSequentialForward.fog[61].dispatcher localJobs_class_1 14421
scalar FogSequentialForward.fog[61].server[0] rho 1
scalar FogSequentialForward.fog[61].server[0] congestionRatio 0
scalar FogSequentialForward.fog[61].server[0] totalJobs 14421
scalar FogSequentialForward.fog[61].server[0] droppedJobsQueue 1770
scalar FogSequentialForward.fog[61].server[0] droppedJobsTimout 0
scalar FogSequentialForward.fog[61].server[0] droppedJobsSLA 8805
scalar FogSequentialForward.fog[61].server[0] droppedJobsTotal 10575
scalar FogSequentialForward.fog[62].dispatcher localJobs 14404
scalar FogSequentialForward.fog[62].dispatcher internalJobs 14415
scalar FogSequentialForward.fog[62].dispatcher externalJobs 455398
scalar FogSequentialForward.fog[62].dispatcher remoteJobs 455409
scalar FogSequentialForward.fog[62].dispatcher probeQueries 0
scalar FogSequentialForward.fog[62].dispatcher probeAnswers 0
scalar FogSequentialForward.fog[62].dispatcher droppedJobsSLA 0
scalar FogSequentialForward.fog[62].dispatcher jobs_class_1 469813
scalar FogSequentialForward.fog[62].dispatcher remoteJobs_class_1 455409
scalar FogSequentialForward.fog[62].dispatcher localJobs_class_1 14404
scalar FogSequentialForward.fog[62].server[0] rho 1
scalar FogSequentialForward.fog[62].server[0] congestionRatio 0
scalar FogSequentialForward.fog[62].server[0] totalJobs 14404
scalar FogSequentialForward.fog[62].server[0] droppedJobsQueue 1763
scalar FogSequentialForward.fog[62].server[0] droppedJobsTimout 0
scalar FogSequentialForward.fog[62].server[0] droppedJobsSLA 8792
scalar FogSequentialForward.fog[62].server[0] droppedJobsTotal 10555
scalar FogSequentialForward.fog[63].dispatcher localJobs 14383
scalar FogSequentialForward.fog[63].dispatcher internalJobs 14121
scalar FogSequentialForward.fog[63].dispatcher externalJobs 455442
scalar FogSequentialForward.fog[63].dispatcher remoteJobs 455180
scalar FogSequentialForward.fog[63].dispatcher probeQueries 0
scalar FogSequentialForward.fog[63].dispatcher probeAnswers 0
scalar FogSequentialForward.fog[63].dispatcher droppedJobsSLA 0
scalar FogSequentialForward.fog[63].dispatcher jobs_class_1 469563
scalar FogSequentialForward.fog[63].dispatcher remoteJobs_class_1 455180
scalar FogSequentialForward.fog[63].dispatcher localJobs_class_1 14383
scalar FogSequentialForward.fog[63].server[0] rho 1
scalar FogSequentialForward.fog[63].server[0] congestionRatio 0
scalar FogSequentialForward.fog[63].server[0] totalJobs 14383
scalar FogSequentialForward.fog[63].server[0] droppedJobsQueue 1749
scalar FogSequentialForward.fog[63].server[0] droppedJobsTimout 0
scalar FogSequentialForward.fog[63].server[0] droppedJobsSLA 8785
scalar FogSequentialForward.fog[63].server[0] droppedJobsTotal 10534
scalar FogSequentialForward.fog[64].dispatcher localJobs 14450
scalar FogSequentialForward.fog[64].dispatcher internalJobs 14305
scalar FogSequentialForward.fog[64].dispatcher externalJobs 454499
scalar FogSequentialForward.fog[64].dispatcher remoteJobs 454354
scalar FogSequentialForward.fog[64].dispatcher probeQueries 0
scalar FogSequentialForward.fog[64].dispatcher probeAnswers 0
scalar FogSequentialForward.fog[64].dispatcher droppedJobsSLA 0
scalar FogSequentialForward.fog[64].dispatcher jobs_class_1 468804
scalar FogSequentialForward.fog[64].dispatcher remoteJobs_class_1 454354
scalar FogSequentialForward.fog[64].dispatcher localJobs_class_1 14450
scalar FogSequentialForward.fog[64].server[0] rho 1
scalar FogSequentialForward.fog[64].server[0] congestionRatio 0
scalar FogSequentialForward.fog[64].server[0] totalJobs 14450
scalar FogSequentialForward.fog[64].server[0] droppedJobsQueue 1780
scalar FogSequentialForward.fog[64].server[0] droppedJobsTimout 0
scalar FogSequentialForward.fog[64].server[0] droppedJobsSLA 8840
scalar FogSequentialForward.fog[64].server[0] droppedJobsTotal 10620
scalar FogSequentialForward.fog[65].dispatcher localJobs 14399
scalar FogSequentialForward.fog[65].dispatcher internalJobs 14497
scalar FogSequentialForward.fog[65].dispatcher externalJobs 455831
scalar FogSequentialForward.fog[65].dispatcher remoteJobs 455929
scalar FogSequentialForward.fog[65].dispatcher probeQueries 0
scalar FogSequentialForward.fog[65].dispatcher probeAnswers 0
scalar FogSequentialForward.fog[65].dispatcher droppedJobsSLA 0
scalar FogSequentialForward.fog[65].dispatcher jobs_class_1 470328
scalar FogSequentialForward.fog[65].dispatcher remoteJobs_class_1 455929
scalar FogSequentialForward.fog[65].dispatcher localJobs_class_1 14399
scalar FogSequentialForward.fog[65].server[0] rho 1
scalar FogSequentialForward.fog[65].server[0] congestionRatio 0
scalar FogSequentialForward.fog[65].server[0] totalJobs 14399
scalar FogSequentialForward.fog[65].server[0] droppedJobsQueue 1749
scalar FogSequentialForward.fog[65].server[0] droppedJobsTimout 0
scalar FogSequentialForward.fog[65].server[0] droppedJobsSLA 8777
scalar FogSequentialForward.fog[65].server[0] droppedJobsTotal 10526
scalar FogSequentialForward.fog[66].dispatcher localJobs 14384
scalar FogSequentialForward.fog[66].dispatcher internalJobs 14548
scalar FogSequentialForward.fog[66].dispatcher externalJobs 455248
scalar FogSequentialForward.fog[66].dispatcher remoteJobs 455412
scalar FogSequentialForward.fog[66].dispatcher probeQueries 0
scalar FogSequentialForward.fog[66].dispatcher probeAnswers 0
scalar FogSequentialForward.fog[66].dispatcher droppedJobsSLA 0
scalar FogSequentialForward.fog[66].dispatcher jobs_class_1 469796
scalar FogSequentialForward.fog[66].dispatcher remoteJobs_class_1 455412
scalar FogSequentialForward.fog[66].dispatcher localJobs_class_1 14384
scalar FogSequentialForward.fog[66].server[0] rho 1
scalar FogSequentialForward.fog[66].server[0] congestionRatio 0
scalar FogSequentialForward.fog[66].server[0] totalJobs 14384
scalar FogSequentialForward.fog[66].server[0] droppedJobsQueue 1764
scalar FogSequentialForward.fog[66].server[0] droppedJobsTimout 0
scalar FogSequentialForward.fog[66].server[0] droppedJobsSLA 8813
scalar FogSequentialForward.fog[66].server[0] droppedJobsTotal 10577
scalar FogSequentialForward.fog[67].dispatcher localJobs 14430
scalar FogSequentialForward.fog[67].dispatcher internalJobs 14402
scalar FogSequentialForward.fog[67].dispatcher externalJobs 455069
scalar FogSequentialForward.fog[67].dispatcher remoteJobs 455041
scalar FogSequentialForward.fog[67].dispatcher probeQueries 0
scalar FogSequentialForward.fog[67].dispatcher probeAnswers 0
scalar FogSequentialForward.fog[67].dispatcher droppedJobsSLA 0
scalar FogSequentialForward.fog[67].dispatcher jobs_class_1 469471
scalar FogSequentialForward.fog[67].dispatcher remoteJobs_class_1 455041
scalar FogSequentialForward.fog[67].dispatcher localJobs_class_1 14430
scalar FogSequentialForward.fog[67].server[0] rho 1
scalar FogSequentialForward.fog[67].server[0] congestionRatio 0
scalar FogSequentialForward.fog[67].server[0] totalJobs 14430
scalar FogSequentialForward.fog[67].server[0] droppedJobsQueue 1763
scalar FogSequentialForward.fog[67].server[0] droppedJobsTimout 0
scalar FogSequentialForward.fog[67].server[0] droppedJobsSLA 8754
scalar FogSequentialForward.fog[67].server[0] droppedJobsTotal 10517
scalar FogSequentialForward.fog[68].dispatcher localJobs 14415
scalar FogSequentialForward.fog[68].dispatcher internalJobs 14399
scalar FogSequentialForward.fog[68].dispatcher externalJobs 454724
scalar FogSequentialForward.fog[68].dispatcher remoteJobs 454708
scalar FogSequentialForward.fog[68].dispatcher probeQueries 0
scalar FogSequentialForward.fog[68].dispatcher probeAnswers 0
scalar FogSequentialForward.fog[68].dispatcher droppedJobsSLA 0
scalar FogSequentialForward.fog[68].dispatcher jobs_class_1 469123
scalar FogSequentialForward.fog[68].dispatcher remoteJobs_class_1 454708
scalar FogSequentialForward.fog[68].dispatcher localJobs_class_1 14415
scalar FogSequentialForward.fog[68].server[0] rho 0.99992632865906
scalar FogSequentialForward.fog[68].server[0] congestionRatio 0
scalar FogSequentialForward.fog[68].server[0] totalJobs 14415
scalar FogSequentialForward.fog[68].server[0] droppedJobsQueue 1776
scalar FogSequentialForward.fog[68].server[0] droppedJobsTimout 0
scalar FogSequentialForward.fog[68].server[0] droppedJobsSLA 8799
scalar FogSequentialForward.fog[68].server[0] droppedJobsTotal 10575
scalar FogSequentialForward.fog[69].dispatcher localJobs 14399
scalar FogSequentialForward.fog[69].dispatcher internalJobs 14532
scalar FogSequentialForward.fog[69].dispatcher externalJobs 455208
scalar FogSequentialForward.fog[69].dispatcher remoteJobs 455341
scalar FogSequentialForward.fog[69].dispatcher probeQueries 0
scalar FogSequentialForward.fog[69].dispatcher probeAnswers 0
scalar FogSequentialForward.fog[69].dispatcher droppedJobsSLA 0
scalar FogSequentialForward.fog[69].dispatcher jobs_class_1 469740
scalar FogSequentialForward.fog[69].dispatcher remoteJobs_class_1 455341
scalar FogSequentialForward.fog[69].dispatcher localJobs_class_1 14399
scalar FogSequentialForward.fog[69].server[0] rho 1
scalar FogSequentialForward.fog[69].server[0] congestionRatio 0
scalar FogSequentialForward.fog[69].server[0] totalJobs 14399
scalar FogSequentialForward.fog[69].server[0] droppedJobsQueue 1755
scalar FogSequentialForward.fog[69].server[0] droppedJobsTimout 0
scalar FogSequentialForward.fog[69].server[0] droppedJobsSLA 8801
scalar FogSequentialForward.fog[69].server[0] droppedJobsTotal 10556
scalar FogSequentialForward.fog[70].dispatcher localJobs 14430
scalar FogSequentialForward.fog[70].dispatcher internalJobs 14304
scalar FogSequentialForward.fog[70].dispatcher externalJobs 455490
scalar FogSequentialForward.fog[70].dispatcher remoteJobs 455364
scalar FogSequentialForward.fog[70].dispatcher probeQueries 0
scalar FogSequentialForward.fog[70].dispatcher probeAnswers 0
scalar FogSequentialForward.fog[70].dispatcher droppedJobsSLA 0
scalar FogSequentialForward.fog[70].dispatcher jobs_class_1 469794
scalar FogSequentialForward.fog[70].dispatcher remoteJobs_class_1 455364
scalar FogSequentialForward.fog[70].dispatcher localJobs_class_1 14430
scalar FogSequentialForward.fog[70].server[0] rho 1
scalar FogSequentialForward.fog[70].server[0] congestionRatio 0
scalar FogSequentialForward.fog[70].server[0] totalJobs 14430
scalar FogSequentialForward.fog[70].server[0] droppedJobsQueue 1763
scalar FogSequentialForward.fog[70].server[0] droppedJobsTimout 0
scalar FogSequentialForward.fog[70].server[0] droppedJobsSLA 8781
scalar FogSequentialForward.fog[70].server[0] droppedJobsTotal 10544
[...]
scalar FogSequentialForward.fog[83].dispatcher localJobs 14445
scalar FogSequentialForward.fog[83].dispatcher internalJobs 14485
scalar FogSequentialForward.fog[83].dispatcher externalJobs 454959
scalar FogSequentialForward.fog[83].dispatcher remoteJobs 454999
scalar FogSequentialForward.fog[83].dispatcher probeQueries 0
scalar FogSequentialForward.fog[83].dispatcher probeAnswers 0
scalar FogSequentialForward.fog[83].dispatcher droppedJobsSLA 0
scalar FogSequentialForward.fog[83].dispatcher jobs_class_1 469444
scalar FogSequentialForward.fog[83].dispatcher remoteJobs_class_1 454999
scalar FogSequentialForward.fog[83].dispatcher localJobs_class_1 14445
scalar FogSequentialForward.fog[83].server[0] rho 1
scalar FogSequentialForward.fog[83].server[0] congestionRatio 0
scalar FogSequentialForward.fog[83].server[0] totalJobs 14445
scalar FogSequentialForward.fog[83].server[0] droppedJobsQueue 1787
scalar FogSequentialForward.fog[83].server[0] droppedJobsTimout 0
scalar FogSequentialForward.fog[83].server[0] droppedJobsSLA 8817
scalar FogSequentialForward.fog[83].server[0] droppedJobsTotal 10604
scalar FogSequentialForward.fog[84].dispatcher localJobs 14439
scalar FogSequentialForward.fog[84].dispatcher internalJobs 14499
scalar FogSequentialForward.fog[84].dispatcher externalJobs 454673
scalar FogSequentialForward.fog[84].dispatcher remoteJobs 454733
scalar FogSequentialForward.fog[84].dispatcher probeQueries 0
scalar FogSequentialForward.fog[84].dispatcher probeAnswers 0
scalar FogSequentialForward.fog[84].dispatcher droppedJobsSLA 0
scalar FogSequentialForward.fog[84].dispatcher jobs_class_1 469172
scalar FogSequentialForward.fog[84].dispatcher remoteJobs_class_1 454733
scalar FogSequentialForward.fog[84].dispatcher localJobs_class_1 14439
scalar FogSequentialForward.fog[84].server[0] rho 1
scalar FogSequentialForward.fog[84].server[0] congestionRatio 0
scalar FogSequentialForward.fog[84].server[0] totalJobs 14439
scalar FogSequentialForward.fog[84].server[0] droppedJobsQueue 1772
scalar FogSequentialForward.fog[84].server[0] droppedJobsTimout 0
scalar FogSequentialForward.fog[84].server[0] droppedJobsSLA 8807
scalar FogSequentialForward.fog[84].server[0] droppedJobsTotal 10579
scalar FogSequentialForward.fog[85].dispatcher localJobs 14373
scalar FogSequentialForward.fog[85].dispatcher internalJobs 14242
scalar FogSequentialForward.fog[85].dispatcher externalJobs 453925
scalar FogSequentialForward.fog[85].dispatcher remoteJobs 453794
scalar FogSequentialForward.fog[85].dispatcher probeQueries 0
scalar FogSequentialForward.fog[85].dispatcher probeAnswers 0
scalar FogSequentialForward.fog[85].dispatcher droppedJobsSLA 0
scalar FogSequentialForward.fog[85].dispatcher jobs_class_1 468167
scalar FogSequentialForward.fog[85].dispatcher remoteJobs_class_1 453794
scalar FogSequentialForward.fog[85].dispatcher localJobs_class_1 14373
scalar FogSequentialForward.fog[85].server[0] rho 1
scalar FogSequentialForward.fog[85].server[0] congestionRatio 0
scalar FogSequentialForward.fog[85].server[0] totalJobs 14373
scalar FogSequentialForward.fog[85].server[0] droppedJobsQueue 1734
scalar FogSequentialForward.fog[85].server[0] droppedJobsTimout 0
scalar FogSequentialForward.fog[85].server[0] droppedJobsSLA 8761
scalar FogSequentialForward.fog[85].server[0] droppedJobsTotal 10495
scalar FogSequentialForward.fog[86].dispatcher localJobs 14389
scalar FogSequentialForward.fog[86].dispatcher internalJobs 14456
scalar FogSequentialForward.fog[86].dispatcher externalJobs 455309
scalar FogSequentialForward.fog[86].dispatcher remoteJobs 455376
scalar FogSequentialForward.fog[86].dispatcher probeQueries 0
scalar FogSequentialForward.fog[86].dispatcher probeAnswers 0
scalar FogSequentialForward.fog[86].dispatcher droppedJobsSLA 0
scalar FogSequentialForward.fog[86].dispatcher jobs_class_1 469765
scalar FogSequentialForward.fog[86].dispatcher remoteJobs_class_1 455376
scalar FogSequentialForward.fog[86].dispatcher localJobs_class_1 14389
scalar FogSequentialForward.fog[86].server[0] rho 1
scalar FogSequentialForward.fog[86].server[0] congestionRatio 0
scalar FogSequentialForward.fog[86].server[0] totalJobs 14389
scalar FogSequentialForward.fog[86].server[0] droppedJobsQueue 1759
scalar FogSequentialForward.fog[86].server[0] droppedJobsTimout 0
scalar FogSequentialForward.fog[86].server[0] droppedJobsSLA 8806
scalar FogSequentialForward.fog[86].server[0] droppedJobsTotal 10565
scalar FogSequentialForward.fog[87].dispatcher localJobs 14416
scalar FogSequentialForward.fog[87].dispatcher internalJobs 14508
scalar FogSequentialForward.fog[87].dispatcher externalJobs 454826
scalar FogSequentialForward.fog[87].dispatcher remoteJobs 454918
scalar FogSequentialForward.fog[87].dispatcher probeQueries 0
scalar FogSequentialForward.fog[87].dispatcher probeAnswers 0
scalar FogSequentialForward.fog[87].dispatcher droppedJobsSLA 0
scalar FogSequentialForward.fog[87].dispatcher jobs_class_1 469334
scalar FogSequentialForward.fog[87].dispatcher remoteJobs_class_1 454918
scalar FogSequentialForward.fog[87].dispatcher localJobs_class_1 14416
scalar FogSequentialForward.fog[87].server[0] rho 1
scalar FogSequentialForward.fog[87].server[0] congestionRatio 0
scalar FogSequentialForward.fog[87].server[0] totalJobs 14416
scalar FogSequentialForward.fog[87].server[0] droppedJobsQueue 1775
scalar FogSequentialForward.fog[87].server[0] droppedJobsTimout 0
scalar FogSequentialForward.fog[87].server[0] droppedJobsSLA 8785
scalar FogSequentialForward.fog[87].server[0] droppedJobsTotal 10560
scalar FogSequentialForward.fog[88].dispatcher localJobs 14417
scalar FogSequentialForward.fog[88].dispatcher internalJobs 14414
scalar FogSequentialForward.fog[88].dispatcher externalJobs 455143
scalar FogSequentialForward.fog[88].dispatcher remoteJobs 455140
scalar FogSequentialForward.fog[88].dispatcher probeQueries 0
scalar FogSequentialForward.fog[88].dispatcher probeAnswers 0
scalar FogSequentialForward.fog[88].dispatcher droppedJobsSLA 0
scalar FogSequentialForward.fog[88].dispatcher jobs_class_1 469557
scalar FogSequentialForward.fog[88].dispatcher remoteJobs_class_1 455140
scalar FogSequentialForward.fog[88].dispatcher localJobs_class_1 14417
scalar FogSequentialForward.fog[88].server[0] rho 1
scalar FogSequentialForward.fog[88].server[0] congestionRatio 0
scalar FogSequentialForward.fog[88].server[0] totalJobs 14417
scalar FogSequentialForward.fog[88].server[0] droppedJobsQueue 1768
scalar FogSequentialForward.fog[88].server[0] droppedJobsTimout 0
scalar FogSequentialForward.fog[88].server[0] droppedJobsSLA 8750
scalar FogSequentialForward.fog[88].server[0] droppedJobsTotal 10518
scalar FogSequentialForward.fog[89].dispatcher localJobs 14402
scalar FogSequentialForward.fog[89].dispatcher internalJobs 14538
scalar FogSequentialForward.fog[89].dispatcher externalJobs 455119
scalar FogSequentialForward.fog[89].dispatcher remoteJobs 455255
scalar FogSequentialForward.fog[89].dispatcher probeQueries 0
scalar FogSequentialForward.fog[89].dispatcher probeAnswers 0
scalar FogSequentialForward.fog[89].dispatcher droppedJobsSLA 0
scalar FogSequentialForward.fog[89].dispatcher jobs_class_1 469657
scalar FogSequentialForward.fog[89].dispatcher remoteJobs_class_1 455255
scalar FogSequentialForward.fog[89].dispatcher localJobs_class_1 14402
scalar FogSequentialForward.fog[89].server[0] rho 1
scalar FogSequentialForward.fog[89].server[0] congestionRatio 0
scalar FogSequentialForward.fog[89].server[0] totalJobs 14402
scalar FogSequentialForward.fog[89].server[0] droppedJobsQueue 1766
scalar FogSequentialForward.fog[89].server[0] droppedJobsTimout 0
scalar FogSequentialForward.fog[89].server[0] droppedJobsSLA 8789
scalar FogSequentialForward.fog[89].server[0] droppedJobsTotal 10555
scalar FogSequentialForward.fog[90].dispatcher localJobs 14432
scalar FogSequentialForward.fog[90].dispatcher internalJobs 14410
scalar FogSequentialForward.fog[90].dispatcher externalJobs 454322
scalar FogSequentialForward.fog[90].dispatcher remoteJobs 454300
scalar FogSequentialForward.fog[90].dispatcher probeQueries 0
scalar FogSequentialForward.fog[90].dispatcher probeAnswers 0
scalar FogSequentialForward.fog[90].dispatcher droppedJobsSLA 0
scalar FogSequentialForward.fog[90].dispatcher jobs_class_1 468732
scalar FogSequentialForward.fog[90].dispatcher remoteJobs_class_1 454300
scalar FogSequentialForward.fog[90].dispatcher localJobs_class_1 14432
scalar FogSequentialForward.fog[90].server[0] rho 1
scalar FogSequentialForward.fog[90].server[0] congestionRatio 0
scalar FogSequentialForward.fog[90].server[0] totalJobs 14432
scalar FogSequentialForward.fog[90].server[0] droppedJobsQueue 1770
scalar FogSequentialForward.fog[90].server[0] droppedJobsTimout 0
scalar FogSequentialForward.fog[90].server[0] droppedJobsSLA 8822
scalar FogSequentialForward.fog[90].server[0] droppedJobsTotal 10592
scalar FogSequentialForward.fog[91].dispatcher localJobs 14371
scalar FogSequentialForward.fog[91].dispatcher internalJobs 14514
scalar FogSequentialForward.fog[91].dispatcher externalJobs 455159
scalar FogSequentialForward.fog[91].dispatcher remoteJobs 455302
scalar FogSequentialForward.fog[91].dispatcher probeQueries 0
scalar FogSequentialForward.fog[91].dispatcher probeAnswers 0
scalar FogSequentialForward.fog[91].dispatcher droppedJobsSLA 0
scalar FogSequentialForward.fog[91].dispatcher jobs_class_1 469673
scalar FogSequentialForward.fog[91].dispatcher remoteJobs_class_1 455302
scalar FogSequentialForward.fog[91].dispatcher localJobs_class_1 14371
scalar FogSequentialForward.fog[91].server[0] rho 0.99991345405579
scalar FogSequentialForward.fog[91].server[0] congestionRatio 0
scalar FogSequentialForward.fog[91].server[0] totalJobs 14371
scalar FogSequentialForward.fog[91].server[0] droppedJobsQueue 1752
scalar FogSequentialForward.fog[91].server[0] droppedJobsTimout 0
scalar FogSequentialForward.fog[91].server[0] droppedJobsSLA 8801
scalar FogSequentialForward.fog[91].server[0] droppedJobsTotal 10553
scalar FogSequentialForward.fog[92].dispatcher localJobs 14394
scalar FogSequentialForward.fog[92].dispatcher internalJobs 14406
scalar FogSequentialForward.fog[92].dispatcher externalJobs 454169
scalar FogSequentialForward.fog[92].dispatcher remoteJobs 454181
scalar FogSequentialForward.fog[92].dispatcher probeQueries 0
scalar FogSequentialForward.fog[92].dispatcher probeAnswers 0
scalar FogSequentialForward.fog[92].dispatcher droppedJobsSLA 0
scalar FogSequentialForward.fog[92].dispatcher jobs_class_1 468575
scalar FogSequentialForward.fog[92].dispatcher remoteJobs_class_1 454181
scalar FogSequentialForward.fog[92].dispatcher localJobs_class_1 14394
scalar FogSequentialForward.fog[92].server[0] rho 1
scalar FogSequentialForward.fog[92].server[0] congestionRatio 0
scalar FogSequentialForward.fog[92].server[0] totalJobs 14394
scalar FogSequentialForward.fog[92].server[0] droppedJobsQueue 1754
scalar FogSequentialForward.fog[92].server[0] droppedJobsTimout 0
scalar FogSequentialForward.fog[92].server[0] droppedJobsSLA 8811
scalar FogSequentialForward.fog[92].server[0] droppedJobsTotal 10565
scalar FogSequentialForward.fog[93].dispatcher localJobs 14435
scalar FogSequentialForward.fog[93].dispatcher internalJobs 14432
scalar FogSequentialForward.fog[93].dispatcher externalJobs 455826
scalar FogSequentialForward.fog[93].dispatcher remoteJobs 455823
scalar FogSequentialForward.fog[93].dispatcher probeQueries 0
scalar FogSequentialForward.fog[93].dispatcher probeAnswers 0
scalar FogSequentialForward.fog[93].dispatcher droppedJobsSLA 0
scalar FogSequentialForward.fog[93].dispatcher jobs_class_1 470258
scalar FogSequentialForward.fog[93].dispatcher remoteJobs_class_1 455823
scalar FogSequentialForward.fog[93].dispatcher localJobs_class_1 14435
scalar FogSequentialForward.fog[93].server[0] rho 1
scalar FogSequentialForward.fog[93].server[0] congestionRatio 0
scalar FogSequentialForward.fog[93].server[0] totalJobs 14435
scalar FogSequentialForward.fog[93].server[0] droppedJobsQueue 1768
scalar FogSequentialForward.fog[93].server[0] droppedJobsTimout 0
scalar FogSequentialForward.fog[93].server[0] droppedJobsSLA 8822
scalar FogSequentialForward.fog[93].server[0] droppedJobsTotal 10590
scalar FogSequentialForward.fog[94].dispatcher localJobs 14414
scalar FogSequentialForward.fog[94].dispatcher internalJobs 14554
scalar FogSequentialForward.fog[94].dispatcher externalJobs 453741
scalar FogSequentialForward.fog[94].dispatcher remoteJobs 453881
scalar FogSequentialForward.fog[94].dispatcher probeQueries 0
scalar FogSequentialForward.fog[94].dispatcher probeAnswers 0
scalar FogSequentialForward.fog[94].dispatcher droppedJobsSLA 0
scalar FogSequentialForward.fog[94].dispatcher jobs_class_1 468295
scalar FogSequentialForward.fog[94].dispatcher remoteJobs_class_1 453881
scalar FogSequentialForward.fog[94].dispatcher localJobs_class_1 14414
scalar FogSequentialForward.fog[94].server[0] rho 1
scalar FogSequentialForward.fog[94].server[0] congestionRatio 0
scalar FogSequentialForward.fog[94].server[0] totalJobs 14414
scalar FogSequentialForward.fog[94].server[0] droppedJobsQueue 1761
scalar FogSequentialForward.fog[94].server[0] droppedJobsTimout 0
scalar FogSequentialForward.fog[94].server[0] droppedJobsSLA 8776
scalar FogSequentialForward.fog[94].server[0] droppedJobsTotal 10537
scalar FogSequentialForward.fog[95].dispatcher localJobs 14419
scalar FogSequentialForward.fog[95].dispatcher internalJobs 14585
scalar FogSequentialForward.fog[95].dispatcher externalJobs 454565
scalar FogSequentialForward.fog[95].dispatcher remoteJobs 454731
scalar FogSequentialForward.fog[95].dispatcher probeQueries 0
scalar FogSequentialForward.fog[95].dispatcher probeAnswers 0
scalar FogSequentialForward.fog[95].dispatcher droppedJobsSLA 0
scalar FogSequentialForward.fog[95].dispatcher jobs_class_1 469150
scalar FogSequentialForward.fog[95].dispatcher remoteJobs_class_1 454731
scalar FogSequentialForward.fog[95].dispatcher localJobs_class_1 14419
scalar FogSequentialForward.fog[95].server[0] rho 1
scalar FogSequentialForward.fog[95].server[0] congestionRatio 0
scalar FogSequentialForward.fog[95].server[0] totalJobs 14419
scalar FogSequentialForward.fog[95].server[0] droppedJobsQueue 1775
scalar FogSequentialForward.fog[95].server[0] droppedJobsTimout 0
scalar FogSequentialForward.fog[95].server[0] droppedJobsSLA 8792
scalar FogSequentialForward.fog[95].server[0] droppedJobsTotal 10567
scalar FogSequentialForward.fog[96].dispatcher localJobs 14437
scalar FogSequentialForward.fog[96].dispatcher internalJobs 14391
scalar FogSequentialForward.fog[96].dispatcher externalJobs 455638
scalar FogSequentialForward.fog[96].dispatcher remoteJobs 455592
scalar FogSequentialForward.fog[96].dispatcher probeQueries 0
scalar FogSequentialForward.fog[96].dispatcher probeAnswers 0
scalar FogSequentialForward.fog[96].dispatcher droppedJobsSLA 0
scalar FogSequentialForward.fog[96].dispatcher jobs_class_1 470029
scalar FogSequentialForward.fog[96].dispatcher remoteJobs_class_1 455592
scalar FogSequentialForward.fog[96].dispatcher localJobs_class_1 14437
scalar FogSequentialForward.fog[96].server[0] rho 1
scalar FogSequentialForward.fog[96].server[0] congestionRatio 0
scalar FogSequentialForward.fog[96].server[0] totalJobs 14437
scalar FogSequentialForward.fog[96].server[0] droppedJobsQueue 1761
scalar FogSequentialForward.fog[96].server[0] droppedJobsTimout 0
scalar FogSequentialForward.fog[96].server[0] droppedJobsSLA 8836
scalar FogSequentialForward.fog[96].server[0] droppedJobsTotal 10597
scalar FogSequentialForward.fog[97].dispatcher localJobs 14413
scalar FogSequentialForward.fog[97].dispatcher internalJobs 14517
scalar FogSequentialForward.fog[97].dispatcher externalJobs 456426
scalar FogSequentialForward.fog[97].dispatcher remoteJobs 456530
scalar FogSequentialForward.fog[97].dispatcher probeQueries 0
scalar FogSequentialForward.fog[97].dispatcher probeAnswers 0
scalar FogSequentialForward.fog[97].dispatcher droppedJobsSLA 0
scalar FogSequentialForward.fog[97].dispatcher jobs_class_1 470943
scalar FogSequentialForward.fog[97].dispatcher remoteJobs_class_1 456530
scalar FogSequentialForward.fog[97].dispatcher localJobs_class_1 14413
scalar FogSequentialForward.fog[97].server[0] rho 1
scalar FogSequentialForward.fog[97].server[0] congestionRatio 0
scalar FogSequentialForward.fog[97].server[0] totalJobs 14413
scalar FogSequentialForward.fog[97].server[0] droppedJobsQueue 1761
scalar FogSequentialForward.fog[97].server[0] droppedJobsTimout 0
scalar FogSequentialForward.fog[97].server[0] droppedJobsSLA 8783
scalar FogSequentialForward.fog[97].server[0] droppedJobsTotal 10544
scalar FogSequentialForward.fog[98].dispatcher localJobs 14397
scalar FogSequentialForward.fog[98].dispatcher internalJobs 14359
scalar FogSequentialForward.fog[98].dispatcher externalJobs 455986
scalar FogSequentialForward.fog[98].dispatcher remoteJobs 455948
scalar FogSequentialForward.fog[98].dispatcher probeQueries 0
scalar FogSequentialForward.fog[98].dispatcher probeAnswers 0
scalar FogSequentialForward.fog[98].dispatcher droppedJobsSLA 0
scalar FogSequentialForward.fog[98].dispatcher jobs_class_1 470345
scalar FogSequentialForward.fog[98].dispatcher remoteJobs_class_1 455948
scalar FogSequentialForward.fog[98].dispatcher localJobs_class_1 14397
scalar FogSequentialForward.fog[98].server[0] rho 0.99999207258224
scalar FogSequentialForward.fog[98].server[0] congestionRatio 0
scalar FogSequentialForward.fog[98].server[0] totalJobs 14397
scalar FogSequentialForward.fog[98].server[0] droppedJobsQueue 1749
scalar FogSequentialForward.fog[98].server[0] droppedJobsTimout 0
scalar FogSequentialForward.fog[98].server[0] droppedJobsSLA 8790
scalar FogSequentialForward.fog[98].server[0] droppedJobsTotal 10539
scalar FogSequentialForward.fog[99].dispatcher localJobs 14423
scalar FogSequentialForward.fog[99].dispatcher internalJobs 14388
scalar FogSequentialForward.fog[99].dispatcher externalJobs 454910
scalar FogSequentialForward.fog[99].dispatcher remoteJobs 454875
scalar FogSequentialForward.fog[99].dispatcher probeQueries 0
scalar FogSequentialForward.fog[99].dispatcher probeAnswers 0
scalar FogSequentialForward.fog[99].dispatcher droppedJobsSLA 0
scalar FogSequentialForward.fog[99].dispatcher jobs_class_1 469298
scalar FogSequentialForward.fog[99].dispatcher remoteJobs_class_1 454875
scalar FogSequentialForward.fog[99].dispatcher localJobs_class_1 14423
scalar FogSequentialForward.fog[99].server[0] rho 1
scalar FogSequentialForward.fog[99].server[0] congestionRatio 0
scalar FogSequentialForward.fog[99].server[0] totalJobs 14423
scalar FogSequentialForward.fog[99].server[0] droppedJobsQueue 1762
scalar FogSequentialForward.fog[99].server[0] droppedJobsTimout 0
scalar FogSequentialForward.fog[99].server[0] droppedJobsSLA 8807
scalar FogSequentialForward.fog[99].server[0] droppedJobsTotal 10569
scalar FogSequentialForward.sink avg_responseTime_1 14.43429391949
scalar FogSequentialForward.sink p90_responseTime_1 1.594573765181
scalar FogSequentialForward.sink med_responseTime_1 1.594573765181
scalar FogSequentialForward.sink avg_delayTime_1 0
scalar FogSequentialForward.sink p90_delayTime_1 0
scalar FogSequentialForward.sink med_delayTime_1 0
scalar FogSequentialForward.sink avg_queuingTime_1 12.325172208508
scalar FogSequentialForward.sink p90_queuingTime_1 0
scalar FogSequentialForward.sink med_queuingTime_1 0
scalar FogSequentialForward.sink avg_serviceTime_1 1.6743448745169
scalar FogSequentialForward.sink p90_serviceTime_1 1.500756621053
scalar FogSequentialForward.sink med_serviceTime_1 1.500756621053
scalar FogSequentialForward.sink avg_balancerTime_1 0.43477683646445
scalar FogSequentialForward.sink p90_balancerTime_1 0
scalar FogSequentialForward.sink med_balancerTime_1 0
scalar FogSequentialForward.sink avg_balancerCount_1 27.034541105691
scalar FogSequentialForward.sink p90_balancerCount_1 1
scalar FogSequentialForward.sink med_balancerCount_1 1

