version 2
run Fog-mul_10-rho_02-thr_12-4-20190714-01:57:57-89192
attr configname Fog-mul_10-rho_02-thr_12
attr datetime 20190714-01:57:57
attr experiment Fog-mul_10-rho_02-thr_12
attr inifile FogSequentialForward.ini
attr iterationvars ""
attr iterationvarsf ""
attr measurement ""
attr network FogSequentialForward
attr processid 89192
attr repetition 4
attr replication #4
attr resultdir results
attr runnumber 4
attr seedset 4
param FogSequentialForward.proctimeMul 1.0
param FogSequentialForward.rho 0.2
param FogSequentialForward.fog[*].dispatcher.thr 12
param FogSequentialForward.nSources 100
param FogSequentialForward.rho 0.9
param FogSequentialForward.proctimeMul 1.0
param FogSequentialForward.source[*].appId 1
param FogSequentialForward.source[*].realTime true
param FogSequentialForward.source[*].multiHop true
param FogSequentialForward.fog[*].nServers 1
param FogSequentialForward.fog[*].dispatcher.fanOut 1
param FogSequentialForward.fog[*].server[*].timeSlice -1s
param FogSequentialForward.fog[*].server[*].timeout -1s
param FogSequentialForward.fog[*].server[*].capacity 20
param FogSequentialForward.fog[*].server[*].fifo true
param FogSequentialForward.fog[*].server[*].maxServiceTime -1s
param FogSequentialForward.fog[*].dispatcher.thr 1

scalar FogSequentialForward.fog[0].dispatcher localJobs 3505
scalar FogSequentialForward.fog[0].dispatcher internalJobs 3505
scalar FogSequentialForward.fog[0].dispatcher externalJobs 0
scalar FogSequentialForward.fog[0].dispatcher remoteJobs 0
scalar FogSequentialForward.fog[0].dispatcher probeQueries 0
scalar FogSequentialForward.fog[0].dispatcher probeAnswers 0
scalar FogSequentialForward.fog[0].dispatcher droppedJobsSLA 0
scalar FogSequentialForward.fog[0].dispatcher jobs_class_1 3505
scalar FogSequentialForward.fog[0].dispatcher localJobs_class_1 3505
scalar FogSequentialForward.fog[0].server[0] rho 0.54161655902863
scalar FogSequentialForward.fog[0].server[0] congestionRatio 0
scalar FogSequentialForward.fog[0].server[0] totalJobs 3505
scalar FogSequentialForward.fog[0].server[0] droppedJobsQueue 0
scalar FogSequentialForward.fog[0].server[0] droppedJobsTimout 0
scalar FogSequentialForward.fog[0].server[0] droppedJobsSLA 0
scalar FogSequentialForward.fog[0].server[0] droppedJobsTotal 0
scalar FogSequentialForward.fog[1].dispatcher localJobs 3606
scalar FogSequentialForward.fog[1].dispatcher internalJobs 3606
scalar FogSequentialForward.fog[1].dispatcher externalJobs 0
scalar FogSequentialForward.fog[1].dispatcher remoteJobs 0
scalar FogSequentialForward.fog[1].dispatcher probeQueries 0
scalar FogSequentialForward.fog[1].dispatcher probeAnswers 0
scalar FogSequentialForward.fog[1].dispatcher droppedJobsSLA 0
scalar FogSequentialForward.fog[1].dispatcher jobs_class_1 3606
scalar FogSequentialForward.fog[1].dispatcher localJobs_class_1 3606
scalar FogSequentialForward.fog[1].server[0] rho 0.55751967430115
scalar FogSequentialForward.fog[1].server[0] congestionRatio 0
scalar FogSequentialForward.fog[1].server[0] totalJobs 3606
scalar FogSequentialForward.fog[1].server[0] droppedJobsQueue 0
scalar FogSequentialForward.fog[1].server[0] droppedJobsTimout 0
scalar FogSequentialForward.fog[1].server[0] droppedJobsSLA 0
scalar FogSequentialForward.fog[1].server[0] droppedJobsTotal 0
scalar FogSequentialForward.fog[2].dispatcher localJobs 3551
scalar FogSequentialForward.fog[2].dispatcher internalJobs 3551
scalar FogSequentialForward.fog[2].dispatcher externalJobs 0
scalar FogSequentialForward.fog[2].dispatcher remoteJobs 0
scalar FogSequentialForward.fog[2].dispatcher probeQueries 0
scalar FogSequentialForward.fog[2].dispatcher probeAnswers 0
scalar FogSequentialForward.fog[2].dispatcher droppedJobsSLA 0
scalar FogSequentialForward.fog[2].dispatcher jobs_class_1 3551
scalar FogSequentialForward.fog[2].dispatcher localJobs_class_1 3551
scalar FogSequentialForward.fog[2].server[0] rho 0.5486261844635
scalar FogSequentialForward.fog[2].server[0] congestionRatio 0
scalar FogSequentialForward.fog[2].server[0] totalJobs 3551
scalar FogSequentialForward.fog[2].server[0] droppedJobsQueue 0
scalar FogSequentialForward.fog[2].server[0] droppedJobsTimout 0
scalar FogSequentialForward.fog[2].server[0] droppedJobsSLA 0
scalar FogSequentialForward.fog[2].server[0] droppedJobsTotal 0
scalar FogSequentialForward.fog[3].dispatcher localJobs 3514
scalar FogSequentialForward.fog[3].dispatcher internalJobs 3514
scalar FogSequentialForward.fog[3].dispatcher externalJobs 0
scalar FogSequentialForward.fog[3].dispatcher remoteJobs 0
scalar FogSequentialForward.fog[3].dispatcher probeQueries 0
scalar FogSequentialForward.fog[3].dispatcher probeAnswers 0
scalar FogSequentialForward.fog[3].dispatcher droppedJobsSLA 0
scalar FogSequentialForward.fog[3].dispatcher jobs_class_1 3514
scalar FogSequentialForward.fog[3].dispatcher localJobs_class_1 3514
scalar FogSequentialForward.fog[3].server[0] rho 0.54306793212891
scalar FogSequentialForward.fog[3].server[0] congestionRatio 0
scalar FogSequentialForward.fog[3].server[0] totalJobs 3514
scalar FogSequentialForward.fog[3].server[0] droppedJobsQueue 0
scalar FogSequentialForward.fog[3].server[0] droppedJobsTimout 0
scalar FogSequentialForward.fog[3].server[0] droppedJobsSLA 0
scalar FogSequentialForward.fog[3].server[0] droppedJobsTotal 0
scalar FogSequentialForward.fog[4].dispatcher localJobs 3590
scalar FogSequentialForward.fog[4].dispatcher internalJobs 3590
scalar FogSequentialForward.fog[4].dispatcher externalJobs 0
scalar FogSequentialForward.fog[4].dispatcher remoteJobs 0
scalar FogSequentialForward.fog[4].dispatcher probeQueries 0
scalar FogSequentialForward.fog[4].dispatcher probeAnswers 0
scalar FogSequentialForward.fog[4].dispatcher droppedJobsSLA 0
scalar FogSequentialForward.fog[4].dispatcher jobs_class_1 3590
scalar FogSequentialForward.fog[4].dispatcher localJobs_class_1 3590
scalar FogSequentialForward.fog[4].server[0] rho 0.55492854118347
scalar FogSequentialForward.fog[4].server[0] congestionRatio 0
scalar FogSequentialForward.fog[4].server[0] totalJobs 3590
scalar FogSequentialForward.fog[4].server[0] droppedJobsQueue 0
scalar FogSequentialForward.fog[4].server[0] droppedJobsTimout 0
scalar FogSequentialForward.fog[4].server[0] droppedJobsSLA 0
scalar FogSequentialForward.fog[4].server[0] droppedJobsTotal 0
scalar FogSequentialForward.fog[5].dispatcher localJobs 3590
scalar FogSequentialForward.fog[5].dispatcher internalJobs 3590
scalar FogSequentialForward.fog[5].dispatcher externalJobs 0
scalar FogSequentialForward.fog[5].dispatcher remoteJobs 0
scalar FogSequentialForward.fog[5].dispatcher probeQueries 0
scalar FogSequentialForward.fog[5].dispatcher probeAnswers 0
scalar FogSequentialForward.fog[5].dispatcher droppedJobsSLA 0
scalar FogSequentialForward.fog[5].dispatcher jobs_class_1 3590
scalar FogSequentialForward.fog[5].dispatcher localJobs_class_1 3590
scalar FogSequentialForward.fog[5].server[0] rho 0.55513018369675
scalar FogSequentialForward.fog[5].server[0] congestionRatio 0
scalar FogSequentialForward.fog[5].server[0] totalJobs 3590
scalar FogSequentialForward.fog[5].server[0] droppedJobsQueue 0
scalar FogSequentialForward.fog[5].server[0] droppedJobsTimout 0
scalar FogSequentialForward.fog[5].server[0] droppedJobsSLA 0
scalar FogSequentialForward.fog[5].server[0] droppedJobsTotal 0
scalar FogSequentialForward.fog[6].dispatcher localJobs 3446
scalar FogSequentialForward.fog[6].dispatcher internalJobs 3446
scalar FogSequentialForward.fog[6].dispatcher externalJobs 0
scalar FogSequentialForward.fog[6].dispatcher remoteJobs 0
scalar FogSequentialForward.fog[6].dispatcher probeQueries 0
scalar FogSequentialForward.fog[6].dispatcher probeAnswers 0
scalar FogSequentialForward.fog[6].dispatcher droppedJobsSLA 0
scalar FogSequentialForward.fog[6].dispatcher jobs_class_1 3446
scalar FogSequentialForward.fog[6].dispatcher localJobs_class_1 3446
scalar FogSequentialForward.fog[6].server[0] rho 0.53272914886475
scalar FogSequentialForward.fog[6].server[0] congestionRatio 0
scalar FogSequentialForward.fog[6].server[0] totalJobs 3446
scalar FogSequentialForward.fog[6].server[0] droppedJobsQueue 0
scalar FogSequentialForward.fog[6].server[0] droppedJobsTimout 0
scalar FogSequentialForward.fog[6].server[0] droppedJobsSLA 0
scalar FogSequentialForward.fog[6].server[0] droppedJobsTotal 0
scalar FogSequentialForward.fog[7].dispatcher localJobs 3474
scalar FogSequentialForward.fog[7].dispatcher internalJobs 3474
scalar FogSequentialForward.fog[7].dispatcher externalJobs 0
scalar FogSequentialForward.fog[7].dispatcher remoteJobs 0
scalar FogSequentialForward.fog[7].dispatcher probeQueries 0
scalar FogSequentialForward.fog[7].dispatcher probeAnswers 0
scalar FogSequentialForward.fog[7].dispatcher droppedJobsSLA 0
scalar FogSequentialForward.fog[7].dispatcher jobs_class_1 3474
scalar FogSequentialForward.fog[7].dispatcher localJobs_class_1 3474
scalar FogSequentialForward.fog[7].server[0] rho 0.53670072555542
scalar FogSequentialForward.fog[7].server[0] congestionRatio 0
scalar FogSequentialForward.fog[7].server[0] totalJobs 3474
scalar FogSequentialForward.fog[7].server[0] droppedJobsQueue 0
scalar FogSequentialForward.fog[7].server[0] droppedJobsTimout 0
scalar FogSequentialForward.fog[7].server[0] droppedJobsSLA 0
scalar FogSequentialForward.fog[7].server[0] droppedJobsTotal 0
scalar FogSequentialForward.fog[8].dispatcher localJobs 3606
scalar FogSequentialForward.fog[8].dispatcher internalJobs 3606
scalar FogSequentialForward.fog[8].dispatcher externalJobs 0
scalar FogSequentialForward.fog[8].dispatcher remoteJobs 0
scalar FogSequentialForward.fog[8].dispatcher probeQueries 0
scalar FogSequentialForward.fog[8].dispatcher probeAnswers 0
scalar FogSequentialForward.fog[8].dispatcher droppedJobsSLA 0
scalar FogSequentialForward.fog[8].dispatcher jobs_class_1 3606
scalar FogSequentialForward.fog[8].dispatcher localJobs_class_1 3606
scalar FogSequentialForward.fog[8].server[0] rho 0.55753916501999
scalar FogSequentialForward.fog[8].server[0] congestionRatio 0
scalar FogSequentialForward.fog[8].server[0] totalJobs 3606
scalar FogSequentialForward.fog[8].server[0] droppedJobsQueue 0
scalar FogSequentialForward.fog[8].server[0] droppedJobsTimout 0
scalar FogSequentialForward.fog[8].server[0] droppedJobsSLA 0
scalar FogSequentialForward.fog[8].server[0] droppedJobsTotal 0
scalar FogSequentialForward.fog[9].dispatcher localJobs 3573
scalar FogSequentialForward.fog[9].dispatcher internalJobs 3573
scalar FogSequentialForward.fog[9].dispatcher externalJobs 0
scalar FogSequentialForward.fog[9].dispatcher remoteJobs 0
scalar FogSequentialForward.fog[9].dispatcher probeQueries 0
scalar FogSequentialForward.fog[9].dispatcher probeAnswers 0
scalar FogSequentialForward.fog[9].dispatcher droppedJobsSLA 0
scalar FogSequentialForward.fog[9].dispatcher jobs_class_1 3573
scalar FogSequentialForward.fog[9].dispatcher localJobs_class_1 3573
scalar FogSequentialForward.fog[9].server[0] rho 0.55264842510223
scalar FogSequentialForward.fog[9].server[0] congestionRatio 0
scalar FogSequentialForward.fog[9].server[0] totalJobs 3573
scalar FogSequentialForward.fog[9].server[0] droppedJobsQueue 0
scalar FogSequentialForward.fog[9].server[0] droppedJobsTimout 0
scalar FogSequentialForward.fog[9].server[0] droppedJobsSLA 0
scalar FogSequentialForward.fog[9].server[0] droppedJobsTotal 0
scalar FogSequentialForward.fog[10].dispatcher localJobs 3620
scalar FogSequentialForward.fog[10].dispatcher internalJobs 3620
scalar FogSequentialForward.fog[10].dispatcher externalJobs 0
scalar FogSequentialForward.fog[10].dispatcher remoteJobs 0
scalar FogSequentialForward.fog[10].dispatcher probeQueries 0
scalar FogSequentialForward.fog[10].dispatcher probeAnswers 0
scalar FogSequentialForward.fog[10].dispatcher droppedJobsSLA 0
scalar FogSequentialForward.fog[10].dispatcher jobs_class_1 3620
scalar FogSequentialForward.fog[10].dispatcher localJobs_class_1 3620
scalar FogSequentialForward.fog[10].server[0] rho 0.55923140048981
scalar FogSequentialForward.fog[10].server[0] congestionRatio 0
scalar FogSequentialForward.fog[10].server[0] totalJobs 3620
scalar FogSequentialForward.fog[10].server[0] droppedJobsQueue 0
scalar FogSequentialForward.fog[10].server[0] droppedJobsTimout 0
scalar FogSequentialForward.fog[10].server[0] droppedJobsSLA 0
scalar FogSequentialForward.fog[10].server[0] droppedJobsTotal 0
scalar FogSequentialForward.fog[11].dispatcher localJobs 3610
scalar FogSequentialForward.fog[11].dispatcher internalJobs 3610
scalar FogSequentialForward.fog[11].dispatcher externalJobs 0
scalar FogSequentialForward.fog[11].dispatcher remoteJobs 0
scalar FogSequentialForward.fog[11].dispatcher probeQueries 0
scalar FogSequentialForward.fog[11].dispatcher probeAnswers 0
scalar FogSequentialForward.fog[11].dispatcher droppedJobsSLA 0
scalar FogSequentialForward.fog[11].dispatcher jobs_class_1 3610
scalar FogSequentialForward.fog[11].dispatcher localJobs_class_1 3610
scalar FogSequentialForward.fog[11].server[0] rho 0.55825388431549
scalar FogSequentialForward.fog[11].server[0] congestionRatio 0
scalar FogSequentialForward.fog[11].server[0] totalJobs 3610
scalar FogSequentialForward.fog[11].server[0] droppedJobsQueue 0
scalar FogSequentialForward.fog[11].server[0] droppedJobsTimout 0
scalar FogSequentialForward.fog[11].server[0] droppedJobsSLA 0
scalar FogSequentialForward.fog[11].server[0] droppedJobsTotal 0
scalar FogSequentialForward.fog[12].dispatcher localJobs 3613
scalar FogSequentialForward.fog[12].dispatcher internalJobs 3613
scalar FogSequentialForward.fog[12].dispatcher externalJobs 0
scalar FogSequentialForward.fog[12].dispatcher remoteJobs 0
scalar FogSequentialForward.fog[12].dispatcher probeQueries 0
scalar FogSequentialForward.fog[12].dispatcher probeAnswers 0
scalar FogSequentialForward.fog[12].dispatcher droppedJobsSLA 0
scalar FogSequentialForward.fog[12].dispatcher jobs_class_1 3613
scalar FogSequentialForward.fog[12].dispatcher localJobs_class_1 3613
scalar FogSequentialForward.fog[12].server[0] rho 0.55868059396744
scalar FogSequentialForward.fog[12].server[0] congestionRatio 0
scalar FogSequentialForward.fog[12].server[0] totalJobs 3613
scalar FogSequentialForward.fog[12].server[0] droppedJobsQueue 0
scalar FogSequentialForward.fog[12].server[0] droppedJobsTimout 0
scalar FogSequentialForward.fog[12].server[0] droppedJobsSLA 0
scalar FogSequentialForward.fog[12].server[0] droppedJobsTotal 0
scalar FogSequentialForward.fog[13].dispatcher localJobs 3596
scalar FogSequentialForward.fog[13].dispatcher internalJobs 3596
scalar FogSequentialForward.fog[13].dispatcher externalJobs 0
scalar FogSequentialForward.fog[13].dispatcher remoteJobs 0
scalar FogSequentialForward.fog[13].dispatcher probeQueries 0
scalar FogSequentialForward.fog[13].dispatcher probeAnswers 0
scalar FogSequentialForward.fog[13].dispatcher droppedJobsSLA 0
scalar FogSequentialForward.fog[13].dispatcher jobs_class_1 3596
scalar FogSequentialForward.fog[13].dispatcher localJobs_class_1 3596
scalar FogSequentialForward.fog[13].server[0] rho 0.55664730072021
scalar FogSequentialForward.fog[13].server[0] congestionRatio 0
scalar FogSequentialForward.fog[13].server[0] totalJobs 3596
scalar FogSequentialForward.fog[13].server[0] droppedJobsQueue 0
scalar FogSequentialForward.fog[13].server[0] droppedJobsTimout 0
scalar FogSequentialForward.fog[13].server[0] droppedJobsSLA 0
scalar FogSequentialForward.fog[13].server[0] droppedJobsTotal 0
scalar FogSequentialForward.fog[14].dispatcher localJobs 3632
scalar FogSequentialForward.fog[14].dispatcher internalJobs 3632
scalar FogSequentialForward.fog[14].dispatcher externalJobs 0
scalar FogSequentialForward.fog[14].dispatcher remoteJobs 0
scalar FogSequentialForward.fog[14].dispatcher probeQueries 0
scalar FogSequentialForward.fog[14].dispatcher probeAnswers 0
scalar FogSequentialForward.fog[14].dispatcher droppedJobsSLA 0
scalar FogSequentialForward.fog[14].dispatcher jobs_class_1 3632
scalar FogSequentialForward.fog[14].dispatcher localJobs_class_1 3632
scalar FogSequentialForward.fog[14].server[0] rho 0.5608943104744
scalar FogSequentialForward.fog[14].server[0] congestionRatio 0
scalar FogSequentialForward.fog[14].server[0] totalJobs 3632
scalar FogSequentialForward.fog[14].server[0] droppedJobsQueue 0
scalar FogSequentialForward.fog[14].server[0] droppedJobsTimout 0
scalar FogSequentialForward.fog[14].server[0] droppedJobsSLA 1
scalar FogSequentialForward.fog[14].server[0] droppedJobsTotal 1
scalar FogSequentialForward.fog[15].dispatcher localJobs 3627
scalar FogSequentialForward.fog[15].dispatcher internalJobs 3627
scalar FogSequentialForward.fog[15].dispatcher externalJobs 0
scalar FogSequentialForward.fog[15].dispatcher remoteJobs 0
scalar FogSequentialForward.fog[15].dispatcher probeQueries 0
scalar FogSequentialForward.fog[15].dispatcher probeAnswers 0
scalar FogSequentialForward.fog[15].dispatcher droppedJobsSLA 0
scalar FogSequentialForward.fog[15].dispatcher jobs_class_1 3627
scalar FogSequentialForward.fog[15].dispatcher localJobs_class_1 3627
scalar FogSequentialForward.fog[15].server[0] rho 0.56099444627762
scalar FogSequentialForward.fog[15].server[0] congestionRatio 0
scalar FogSequentialForward.fog[15].server[0] totalJobs 3627
scalar FogSequentialForward.fog[15].server[0] droppedJobsQueue 0
scalar FogSequentialForward.fog[15].server[0] droppedJobsTimout 0
scalar FogSequentialForward.fog[15].server[0] droppedJobsSLA 0
scalar FogSequentialForward.fog[15].server[0] droppedJobsTotal 0
scalar FogSequentialForward.fog[16].dispatcher localJobs 3720
scalar FogSequentialForward.fog[16].dispatcher internalJobs 3720
scalar FogSequentialForward.fog[16].dispatcher externalJobs 0
scalar FogSequentialForward.fog[16].dispatcher remoteJobs 0
scalar FogSequentialForward.fog[16].dispatcher probeQueries 0
scalar FogSequentialForward.fog[16].dispatcher probeAnswers 0
scalar FogSequentialForward.fog[16].dispatcher droppedJobsSLA 0
scalar FogSequentialForward.fog[16].dispatcher jobs_class_1 3720
scalar FogSequentialForward.fog[16].dispatcher localJobs_class_1 3720
scalar FogSequentialForward.fog[16].server[0] rho 0.575275182724
scalar FogSequentialForward.fog[16].server[0] congestionRatio 0
scalar FogSequentialForward.fog[16].server[0] totalJobs 3720
scalar FogSequentialForward.fog[16].server[0] droppedJobsQueue 0
scalar FogSequentialForward.fog[16].server[0] droppedJobsTimout 0
scalar FogSequentialForward.fog[16].server[0] droppedJobsSLA 0
scalar FogSequentialForward.fog[16].server[0] droppedJobsTotal 0
scalar FogSequentialForward.fog[17].dispatcher localJobs 3609
scalar FogSequentialForward.fog[17].dispatcher internalJobs 3609
scalar FogSequentialForward.fog[17].dispatcher externalJobs 0
scalar FogSequentialForward.fog[17].dispatcher remoteJobs 0
scalar FogSequentialForward.fog[17].dispatcher probeQueries 0
scalar FogSequentialForward.fog[17].dispatcher probeAnswers 0
scalar FogSequentialForward.fog[17].dispatcher droppedJobsSLA 0
scalar FogSequentialForward.fog[17].dispatcher jobs_class_1 3609
scalar FogSequentialForward.fog[17].dispatcher localJobs_class_1 3609
scalar FogSequentialForward.fog[17].server[0] rho 0.5579662322998
scalar FogSequentialForward.fog[17].server[0] congestionRatio 0
scalar FogSequentialForward.fog[17].server[0] totalJobs 3609
scalar FogSequentialForward.fog[17].server[0] droppedJobsQueue 0
scalar FogSequentialForward.fog[17].server[0] droppedJobsTimout 0
scalar FogSequentialForward.fog[17].server[0] droppedJobsSLA 0
scalar FogSequentialForward.fog[17].server[0] droppedJobsTotal 0
scalar FogSequentialForward.fog[18].dispatcher localJobs 3637
scalar FogSequentialForward.fog[18].dispatcher internalJobs 3637
scalar FogSequentialForward.fog[18].dispatcher externalJobs 0
scalar FogSequentialForward.fog[18].dispatcher remoteJobs 0
scalar FogSequentialForward.fog[18].dispatcher probeQueries 0
scalar FogSequentialForward.fog[18].dispatcher probeAnswers 0
scalar FogSequentialForward.fog[18].dispatcher droppedJobsSLA 0
scalar FogSequentialForward.fog[18].dispatcher jobs_class_1 3637
scalar FogSequentialForward.fog[18].dispatcher localJobs_class_1 3637
scalar FogSequentialForward.fog[18].server[0] rho 0.5621999502182
scalar FogSequentialForward.fog[18].server[0] congestionRatio 0
scalar FogSequentialForward.fog[18].server[0] totalJobs 3637
scalar FogSequentialForward.fog[18].server[0] droppedJobsQueue 0
scalar FogSequentialForward.fog[18].server[0] droppedJobsTimout 0
scalar FogSequentialForward.fog[18].server[0] droppedJobsSLA 0
scalar FogSequentialForward.fog[18].server[0] droppedJobsTotal 0
scalar FogSequentialForward.fog[19].dispatcher localJobs 3660
scalar FogSequentialForward.fog[19].dispatcher internalJobs 3660
scalar FogSequentialForward.fog[19].dispatcher externalJobs 0
scalar FogSequentialForward.fog[19].dispatcher remoteJobs 0
scalar FogSequentialForward.fog[19].dispatcher probeQueries 0
scalar FogSequentialForward.fog[19].dispatcher probeAnswers 0
scalar FogSequentialForward.fog[19].dispatcher droppedJobsSLA 0
scalar FogSequentialForward.fog[19].dispatcher jobs_class_1 3660
scalar FogSequentialForward.fog[19].dispatcher localJobs_class_1 3660
scalar FogSequentialForward.fog[19].server[0] rho 0.56576329469681
scalar FogSequentialForward.fog[19].server[0] congestionRatio 0
scalar FogSequentialForward.fog[19].server[0] totalJobs 3660
scalar FogSequentialForward.fog[19].server[0] droppedJobsQueue 0
scalar FogSequentialForward.fog[19].server[0] droppedJobsTimout 0
scalar FogSequentialForward.fog[19].server[0] droppedJobsSLA 0
scalar FogSequentialForward.fog[19].server[0] droppedJobsTotal 0
scalar FogSequentialForward.fog[20].dispatcher localJobs 3611
scalar FogSequentialForward.fog[20].dispatcher internalJobs 3611
scalar FogSequentialForward.fog[20].dispatcher externalJobs 0
scalar FogSequentialForward.fog[20].dispatcher remoteJobs 0
scalar FogSequentialForward.fog[20].dispatcher probeQueries 0
scalar FogSequentialForward.fog[20].dispatcher probeAnswers 0
scalar FogSequentialForward.fog[20].dispatcher droppedJobsSLA 0
scalar FogSequentialForward.fog[20].dispatcher jobs_class_1 3611
scalar FogSequentialForward.fog[20].dispatcher localJobs_class_1 3611
scalar FogSequentialForward.fog[20].server[0] rho 0.55852699279785
scalar FogSequentialForward.fog[20].server[0] congestionRatio 0
scalar FogSequentialForward.fog[20].server[0] totalJobs 3611
scalar FogSequentialForward.fog[20].server[0] droppedJobsQueue 0
scalar FogSequentialForward.fog[20].server[0] droppedJobsTimout 0
scalar FogSequentialForward.fog[20].server[0] droppedJobsSLA 0
scalar FogSequentialForward.fog[20].server[0] droppedJobsTotal 0
scalar FogSequentialForward.fog[21].dispatcher localJobs 3594
scalar FogSequentialForward.fog[21].dispatcher internalJobs 3594
scalar FogSequentialForward.fog[21].dispatcher externalJobs 0
scalar FogSequentialForward.fog[21].dispatcher remoteJobs 0
scalar FogSequentialForward.fog[21].dispatcher probeQueries 0
scalar FogSequentialForward.fog[21].dispatcher probeAnswers 0
scalar FogSequentialForward.fog[21].dispatcher droppedJobsSLA 0
scalar FogSequentialForward.fog[21].dispatcher jobs_class_1 3594
scalar FogSequentialForward.fog[21].dispatcher localJobs_class_1 3594
scalar FogSequentialForward.fog[21].server[0] rho 0.55535298585892
scalar FogSequentialForward.fog[21].server[0] congestionRatio 0
scalar FogSequentialForward.fog[21].server[0] totalJobs 3594
scalar FogSequentialForward.fog[21].server[0] droppedJobsQueue 0
scalar FogSequentialForward.fog[21].server[0] droppedJobsTimout 0
scalar FogSequentialForward.fog[21].server[0] droppedJobsSLA 0
scalar FogSequentialForward.fog[21].server[0] droppedJobsTotal 0
scalar FogSequentialForward.fog[22].dispatcher localJobs 3600
scalar FogSequentialForward.fog[22].dispatcher internalJobs 3600
scalar FogSequentialForward.fog[22].dispatcher externalJobs 0
scalar FogSequentialForward.fog[22].dispatcher remoteJobs 0
scalar FogSequentialForward.fog[22].dispatcher probeQueries 0
scalar FogSequentialForward.fog[22].dispatcher probeAnswers 0
scalar FogSequentialForward.fog[22].dispatcher droppedJobsSLA 0
scalar FogSequentialForward.fog[22].dispatcher jobs_class_1 3600
scalar FogSequentialForward.fog[22].dispatcher localJobs_class_1 3600
scalar FogSequentialForward.fog[22].server[0] rho 0.55658054351807
scalar FogSequentialForward.fog[22].server[0] congestionRatio 0
scalar FogSequentialForward.fog[22].server[0] totalJobs 3600
scalar FogSequentialForward.fog[22].server[0] droppedJobsQueue 0
scalar FogSequentialForward.fog[22].server[0] droppedJobsTimout 0
scalar FogSequentialForward.fog[22].server[0] droppedJobsSLA 0
scalar FogSequentialForward.fog[22].server[0] droppedJobsTotal 0
scalar FogSequentialForward.fog[23].dispatcher localJobs 3598
scalar FogSequentialForward.fog[23].dispatcher internalJobs 3598
scalar FogSequentialForward.fog[23].dispatcher externalJobs 0
scalar FogSequentialForward.fog[23].dispatcher remoteJobs 0
scalar FogSequentialForward.fog[23].dispatcher probeQueries 0
scalar FogSequentialForward.fog[23].dispatcher probeAnswers 0
scalar FogSequentialForward.fog[23].dispatcher droppedJobsSLA 0
scalar FogSequentialForward.fog[23].dispatcher jobs_class_1 3598
scalar FogSequentialForward.fog[23].dispatcher localJobs_class_1 3598
scalar FogSequentialForward.fog[23].server[0] rho 0.55613952875137
scalar FogSequentialForward.fog[23].server[0] congestionRatio 0
scalar FogSequentialForward.fog[23].server[0] totalJobs 3598
scalar FogSequentialForward.fog[23].server[0] droppedJobsQueue 0
scalar FogSequentialForward.fog[23].server[0] droppedJobsTimout 0
scalar FogSequentialForward.fog[23].server[0] droppedJobsSLA 0
scalar FogSequentialForward.fog[23].server[0] droppedJobsTotal 0
scalar FogSequentialForward.fog[24].dispatcher localJobs 3631
scalar FogSequentialForward.fog[24].dispatcher internalJobs 3631
scalar FogSequentialForward.fog[24].dispatcher externalJobs 0
scalar FogSequentialForward.fog[24].dispatcher remoteJobs 0
scalar FogSequentialForward.fog[24].dispatcher probeQueries 0
scalar FogSequentialForward.fog[24].dispatcher probeAnswers 0
scalar FogSequentialForward.fog[24].dispatcher droppedJobsSLA 0
scalar FogSequentialForward.fog[24].dispatcher jobs_class_1 3631
scalar FogSequentialForward.fog[24].dispatcher localJobs_class_1 3631
scalar FogSequentialForward.fog[24].server[0] rho 0.56145226955414
scalar FogSequentialForward.fog[24].server[0] congestionRatio 0
scalar FogSequentialForward.fog[24].server[0] totalJobs 3631
scalar FogSequentialForward.fog[24].server[0] droppedJobsQueue 0
scalar FogSequentialForward.fog[24].server[0] droppedJobsTimout 0
scalar FogSequentialForward.fog[24].server[0] droppedJobsSLA 0
scalar FogSequentialForward.fog[24].server[0] droppedJobsTotal 0
scalar FogSequentialForward.fog[25].dispatcher localJobs 3616
scalar FogSequentialForward.fog[25].dispatcher internalJobs 3616
scalar FogSequentialForward.fog[25].dispatcher externalJobs 0
scalar FogSequentialForward.fog[25].dispatcher remoteJobs 0
scalar FogSequentialForward.fog[25].dispatcher probeQueries 0
scalar FogSequentialForward.fog[25].dispatcher probeAnswers 0
scalar FogSequentialForward.fog[25].dispatcher droppedJobsSLA 0
scalar FogSequentialForward.fog[25].dispatcher jobs_class_1 3616
scalar FogSequentialForward.fog[25].dispatcher localJobs_class_1 3616
scalar FogSequentialForward.fog[25].server[0] rho 0.55925118923187
scalar FogSequentialForward.fog[25].server[0] congestionRatio 0
scalar FogSequentialForward.fog[25].server[0] totalJobs 3616
scalar FogSequentialForward.fog[25].server[0] droppedJobsQueue 0
scalar FogSequentialForward.fog[25].server[0] droppedJobsTimout 0
scalar FogSequentialForward.fog[25].server[0] droppedJobsSLA 0
scalar FogSequentialForward.fog[25].server[0] droppedJobsTotal 0
scalar FogSequentialForward.fog[26].dispatcher localJobs 3582
scalar FogSequentialForward.fog[26].dispatcher internalJobs 3582
scalar FogSequentialForward.fog[26].dispatcher externalJobs 0
scalar FogSequentialForward.fog[26].dispatcher remoteJobs 0
scalar FogSequentialForward.fog[26].dispatcher probeQueries 0
scalar FogSequentialForward.fog[26].dispatcher probeAnswers 0
scalar FogSequentialForward.fog[26].dispatcher droppedJobsSLA 0
scalar FogSequentialForward.fog[26].dispatcher jobs_class_1 3582
scalar FogSequentialForward.fog[26].dispatcher localJobs_class_1 3582
scalar FogSequentialForward.fog[26].server[0] rho 0.55357849597931
scalar FogSequentialForward.fog[26].server[0] congestionRatio 0
scalar FogSequentialForward.fog[26].server[0] totalJobs 3582
scalar FogSequentialForward.fog[26].server[0] droppedJobsQueue 0
scalar FogSequentialForward.fog[26].server[0] droppedJobsTimout 0
scalar FogSequentialForward.fog[26].server[0] droppedJobsSLA 0
scalar FogSequentialForward.fog[26].server[0] droppedJobsTotal 0
scalar FogSequentialForward.fog[27].dispatcher localJobs 3605
scalar FogSequentialForward.fog[27].dispatcher internalJobs 3605
scalar FogSequentialForward.fog[27].dispatcher externalJobs 0
scalar FogSequentialForward.fog[27].dispatcher remoteJobs 0
scalar FogSequentialForward.fog[27].dispatcher probeQueries 0
scalar FogSequentialForward.fog[27].dispatcher probeAnswers 0
scalar FogSequentialForward.fog[27].dispatcher droppedJobsSLA 0
scalar FogSequentialForward.fog[27].dispatcher jobs_class_1 3605
scalar FogSequentialForward.fog[27].dispatcher localJobs_class_1 3605
scalar FogSequentialForward.fog[27].server[0] rho 0.55735862255096
scalar FogSequentialForward.fog[27].server[0] congestionRatio 0
scalar FogSequentialForward.fog[27].server[0] totalJobs 3605
scalar FogSequentialForward.fog[27].server[0] droppedJobsQueue 0
scalar FogSequentialForward.fog[27].server[0] droppedJobsTimout 0
scalar FogSequentialForward.fog[27].server[0] droppedJobsSLA 0
scalar FogSequentialForward.fog[27].server[0] droppedJobsTotal 0
scalar FogSequentialForward.fog[28].dispatcher localJobs 3588
scalar FogSequentialForward.fog[28].dispatcher internalJobs 3588
scalar FogSequentialForward.fog[28].dispatcher externalJobs 0
scalar FogSequentialForward.fog[28].dispatcher remoteJobs 0
scalar FogSequentialForward.fog[28].dispatcher probeQueries 0
scalar FogSequentialForward.fog[28].dispatcher probeAnswers 0
scalar FogSequentialForward.fog[28].dispatcher droppedJobsSLA 0
scalar FogSequentialForward.fog[28].dispatcher jobs_class_1 3588
scalar FogSequentialForward.fog[28].dispatcher localJobs_class_1 3588
scalar FogSequentialForward.fog[28].server[0] rho 0.55445152521133
scalar FogSequentialForward.fog[28].server[0] congestionRatio 0
scalar FogSequentialForward.fog[28].server[0] totalJobs 3588
scalar FogSequentialForward.fog[28].server[0] droppedJobsQueue 0
scalar FogSequentialForward.fog[28].server[0] droppedJobsTimout 0
scalar FogSequentialForward.fog[28].server[0] droppedJobsSLA 0
scalar FogSequentialForward.fog[28].server[0] droppedJobsTotal 0
scalar FogSequentialForward.fog[29].dispatcher localJobs 3690
scalar FogSequentialForward.fog[29].dispatcher internalJobs 3690
scalar FogSequentialForward.fog[29].dispatcher externalJobs 0
scalar FogSequentialForward.fog[29].dispatcher remoteJobs 0
scalar FogSequentialForward.fog[29].dispatcher probeQueries 0
scalar FogSequentialForward.fog[29].dispatcher probeAnswers 0
scalar FogSequentialForward.fog[29].dispatcher droppedJobsSLA 0
scalar FogSequentialForward.fog[29].dispatcher jobs_class_1 3690
scalar FogSequentialForward.fog[29].dispatcher localJobs_class_1 3690
scalar FogSequentialForward.fog[29].server[0] rho 0.57049626111984
scalar FogSequentialForward.fog[29].server[0] congestionRatio 0
scalar FogSequentialForward.fog[29].server[0] totalJobs 3690
scalar FogSequentialForward.fog[29].server[0] droppedJobsQueue 0
scalar FogSequentialForward.fog[29].server[0] droppedJobsTimout 0
scalar FogSequentialForward.fog[29].server[0] droppedJobsSLA 0
scalar FogSequentialForward.fog[29].server[0] droppedJobsTotal 0
scalar FogSequentialForward.fog[30].dispatcher localJobs 3597
scalar FogSequentialForward.fog[30].dispatcher internalJobs 3597
scalar FogSequentialForward.fog[30].dispatcher externalJobs 0
scalar FogSequentialForward.fog[30].dispatcher remoteJobs 0
scalar FogSequentialForward.fog[30].dispatcher probeQueries 0
scalar FogSequentialForward.fog[30].dispatcher probeAnswers 0
scalar FogSequentialForward.fog[30].dispatcher droppedJobsSLA 0
scalar FogSequentialForward.fog[30].dispatcher jobs_class_1 3597
scalar FogSequentialForward.fog[30].dispatcher localJobs_class_1 3597
scalar FogSequentialForward.fog[30].server[0] rho 0.55623894929886
scalar FogSequentialForward.fog[30].server[0] congestionRatio 0
scalar FogSequentialForward.fog[30].server[0] totalJobs 3597
scalar FogSequentialForward.fog[30].server[0] droppedJobsQueue 0
scalar FogSequentialForward.fog[30].server[0] droppedJobsTimout 0
scalar FogSequentialForward.fog[30].server[0] droppedJobsSLA 0
scalar FogSequentialForward.fog[30].server[0] droppedJobsTotal 0
scalar FogSequentialForward.fog[31].dispatcher localJobs 3588
scalar FogSequentialForward.fog[31].dispatcher internalJobs 3588
scalar FogSequentialForward.fog[31].dispatcher externalJobs 0
scalar FogSequentialForward.fog[31].dispatcher remoteJobs 0
scalar FogSequentialForward.fog[31].dispatcher probeQueries 0
scalar FogSequentialForward.fog[31].dispatcher probeAnswers 0
scalar FogSequentialForward.fog[31].dispatcher droppedJobsSLA 0
scalar FogSequentialForward.fog[31].dispatcher jobs_class_1 3588
scalar FogSequentialForward.fog[31].dispatcher localJobs_class_1 3588
scalar FogSequentialForward.fog[31].server[0] rho 0.55475115776062
scalar FogSequentialForward.fog[31].server[0] congestionRatio 0
scalar FogSequentialForward.fog[31].server[0] totalJobs 3588
scalar FogSequentialForward.fog[31].server[0] droppedJobsQueue 0
scalar FogSequentialForward.fog[31].server[0] droppedJobsTimout 0
scalar FogSequentialForward.fog[31].server[0] droppedJobsSLA 0
scalar FogSequentialForward.fog[31].server[0] droppedJobsTotal 0
scalar FogSequentialForward.fog[32].dispatcher localJobs 3650
scalar FogSequentialForward.fog[32].dispatcher internalJobs 3650
scalar FogSequentialForward.fog[32].dispatcher externalJobs 0
scalar FogSequentialForward.fog[32].dispatcher remoteJobs 0
scalar FogSequentialForward.fog[32].dispatcher probeQueries 0
scalar FogSequentialForward.fog[32].dispatcher probeAnswers 0
scalar FogSequentialForward.fog[32].dispatcher droppedJobsSLA 0
scalar FogSequentialForward.fog[32].dispatcher jobs_class_1 3650
scalar FogSequentialForward.fog[32].dispatcher localJobs_class_1 3650
scalar FogSequentialForward.fog[32].server[0] rho 0.56427484750748
scalar FogSequentialForward.fog[32].server[0] congestionRatio 0
scalar FogSequentialForward.fog[32].server[0] totalJobs 3650
scalar FogSequentialForward.fog[32].server[0] droppedJobsQueue 0
scalar FogSequentialForward.fog[32].server[0] droppedJobsTimout 0
scalar FogSequentialForward.fog[32].server[0] droppedJobsSLA 0
scalar FogSequentialForward.fog[32].server[0] droppedJobsTotal 0
scalar FogSequentialForward.fog[33].dispatcher localJobs 3585
scalar FogSequentialForward.fog[33].dispatcher internalJobs 3585
scalar FogSequentialForward.fog[33].dispatcher externalJobs 0
scalar FogSequentialForward.fog[33].dispatcher remoteJobs 0
scalar FogSequentialForward.fog[33].dispatcher probeQueries 0
scalar FogSequentialForward.fog[33].dispatcher probeAnswers 0
scalar FogSequentialForward.fog[33].dispatcher droppedJobsSLA 0
scalar FogSequentialForward.fog[33].dispatcher jobs_class_1 3585
scalar FogSequentialForward.fog[33].dispatcher localJobs_class_1 3585
scalar FogSequentialForward.fog[33].server[0] rho 0.55432850122452
scalar FogSequentialForward.fog[33].server[0] congestionRatio 0
scalar FogSequentialForward.fog[33].server[0] totalJobs 3585
scalar FogSequentialForward.fog[33].server[0] droppedJobsQueue 0
scalar FogSequentialForward.fog[33].server[0] droppedJobsTimout 0
scalar FogSequentialForward.fog[33].server[0] droppedJobsSLA 0
scalar FogSequentialForward.fog[33].server[0] droppedJobsTotal 0
scalar FogSequentialForward.fog[34].dispatcher localJobs 3578
scalar FogSequentialForward.fog[34].dispatcher internalJobs 3578
scalar FogSequentialForward.fog[34].dispatcher externalJobs 0
scalar FogSequentialForward.fog[34].dispatcher remoteJobs 0
scalar FogSequentialForward.fog[34].dispatcher probeQueries 0
scalar FogSequentialForward.fog[34].dispatcher probeAnswers 0
scalar FogSequentialForward.fog[34].dispatcher droppedJobsSLA 0
scalar FogSequentialForward.fog[34].dispatcher jobs_class_1 3578
scalar FogSequentialForward.fog[34].dispatcher localJobs_class_1 3578
scalar FogSequentialForward.fog[34].server[0] rho 0.55208438634872
scalar FogSequentialForward.fog[34].server[0] congestionRatio 0
scalar FogSequentialForward.fog[34].server[0] totalJobs 3578
scalar FogSequentialForward.fog[34].server[0] droppedJobsQueue 0
scalar FogSequentialForward.fog[34].server[0] droppedJobsTimout 0
scalar FogSequentialForward.fog[34].server[0] droppedJobsSLA 0
scalar FogSequentialForward.fog[34].server[0] droppedJobsTotal 0
scalar FogSequentialForward.fog[35].dispatcher localJobs 3470
scalar FogSequentialForward.fog[35].dispatcher internalJobs 3470
scalar FogSequentialForward.fog[35].dispatcher externalJobs 0
scalar FogSequentialForward.fog[35].dispatcher remoteJobs 0
scalar FogSequentialForward.fog[35].dispatcher probeQueries 0
scalar FogSequentialForward.fog[35].dispatcher probeAnswers 0
scalar FogSequentialForward.fog[35].dispatcher droppedJobsSLA 0
scalar FogSequentialForward.fog[35].dispatcher jobs_class_1 3470
scalar FogSequentialForward.fog[35].dispatcher localJobs_class_1 3470
scalar FogSequentialForward.fog[35].server[0] rho 0.53619414567947
scalar FogSequentialForward.fog[35].server[0] congestionRatio 0
scalar FogSequentialForward.fog[35].server[0] totalJobs 3470
scalar FogSequentialForward.fog[35].server[0] droppedJobsQueue 0
scalar FogSequentialForward.fog[35].server[0] droppedJobsTimout 0
scalar FogSequentialForward.fog[35].server[0] droppedJobsSLA 0
scalar FogSequentialForward.fog[35].server[0] droppedJobsTotal 0
scalar FogSequentialForward.fog[36].dispatcher localJobs 3640
scalar FogSequentialForward.fog[36].dispatcher internalJobs 3640
scalar FogSequentialForward.fog[36].dispatcher externalJobs 0
scalar FogSequentialForward.fog[36].dispatcher remoteJobs 0
scalar FogSequentialForward.fog[36].dispatcher probeQueries 0
scalar FogSequentialForward.fog[36].dispatcher probeAnswers 0
scalar FogSequentialForward.fog[36].dispatcher droppedJobsSLA 0
scalar FogSequentialForward.fog[36].dispatcher jobs_class_1 3640
scalar FogSequentialForward.fog[36].dispatcher localJobs_class_1 3640
scalar FogSequentialForward.fog[36].server[0] rho 0.56276214122772
scalar FogSequentialForward.fog[36].server[0] congestionRatio 0
scalar FogSequentialForward.fog[36].server[0] totalJobs 3640
scalar FogSequentialForward.fog[36].server[0] droppedJobsQueue 0
scalar FogSequentialForward.fog[36].server[0] droppedJobsTimout 0
scalar FogSequentialForward.fog[36].server[0] droppedJobsSLA 0
scalar FogSequentialForward.fog[36].server[0] droppedJobsTotal 0
scalar FogSequentialForward.fog[37].dispatcher localJobs 3623
scalar FogSequentialForward.fog[37].dispatcher internalJobs 3623
scalar FogSequentialForward.fog[37].dispatcher externalJobs 0
scalar FogSequentialForward.fog[37].dispatcher remoteJobs 0
scalar FogSequentialForward.fog[37].dispatcher probeQueries 0
scalar FogSequentialForward.fog[37].dispatcher probeAnswers 0
scalar FogSequentialForward.fog[37].dispatcher droppedJobsSLA 0
scalar FogSequentialForward.fog[37].dispatcher jobs_class_1 3623
scalar FogSequentialForward.fog[37].dispatcher localJobs_class_1 3623
scalar FogSequentialForward.fog[37].server[0] rho 0.5600882768631
scalar FogSequentialForward.fog[37].server[0] congestionRatio 0
scalar FogSequentialForward.fog[37].server[0] totalJobs 3623
scalar FogSequentialForward.fog[37].server[0] droppedJobsQueue 0
scalar FogSequentialForward.fog[37].server[0] droppedJobsTimout 0
scalar FogSequentialForward.fog[37].server[0] droppedJobsSLA 0
scalar FogSequentialForward.fog[37].server[0] droppedJobsTotal 0
scalar FogSequentialForward.fog[38].dispatcher localJobs 3633
scalar FogSequentialForward.fog[38].dispatcher internalJobs 3633
scalar FogSequentialForward.fog[38].dispatcher externalJobs 0
scalar FogSequentialForward.fog[38].dispatcher remoteJobs 0
scalar FogSequentialForward.fog[38].dispatcher probeQueries 0
scalar FogSequentialForward.fog[38].dispatcher probeAnswers 0
scalar FogSequentialForward.fog[38].dispatcher droppedJobsSLA 0
scalar FogSequentialForward.fog[38].dispatcher jobs_class_1 3633
scalar FogSequentialForward.fog[38].dispatcher localJobs_class_1 3633
scalar FogSequentialForward.fog[38].server[0] rho 0.56161683797836
scalar FogSequentialForward.fog[38].server[0] congestionRatio 0
scalar FogSequentialForward.fog[38].server[0] totalJobs 3633
scalar FogSequentialForward.fog[38].server[0] droppedJobsQueue 0
scalar FogSequentialForward.fog[38].server[0] droppedJobsTimout 0
scalar FogSequentialForward.fog[38].server[0] droppedJobsSLA 0
scalar FogSequentialForward.fog[38].server[0] droppedJobsTotal 0
scalar FogSequentialForward.fog[39].dispatcher localJobs 3555
scalar FogSequentialForward.fog[39].dispatcher internalJobs 3555
scalar FogSequentialForward.fog[39].dispatcher externalJobs 0
scalar FogSequentialForward.fog[39].dispatcher remoteJobs 0
scalar FogSequentialForward.fog[39].dispatcher probeQueries 0
scalar FogSequentialForward.fog[39].dispatcher probeAnswers 0
scalar FogSequentialForward.fog[39].dispatcher droppedJobsSLA 0
scalar FogSequentialForward.fog[39].dispatcher jobs_class_1 3555
scalar FogSequentialForward.fog[39].dispatcher localJobs_class_1 3555
scalar FogSequentialForward.fog[39].server[0] rho 0.54914206266403
scalar FogSequentialForward.fog[39].server[0] congestionRatio 0
scalar FogSequentialForward.fog[39].server[0] totalJobs 3555
scalar FogSequentialForward.fog[39].server[0] droppedJobsQueue 0
scalar FogSequentialForward.fog[39].server[0] droppedJobsTimout 0
scalar FogSequentialForward.fog[39].server[0] droppedJobsSLA 0
scalar FogSequentialForward.fog[39].server[0] droppedJobsTotal 0
scalar FogSequentialForward.fog[40].dispatcher localJobs 3590
scalar FogSequentialForward.fog[40].dispatcher internalJobs 3590
scalar FogSequentialForward.fog[40].dispatcher externalJobs 0
scalar FogSequentialForward.fog[40].dispatcher remoteJobs 0
scalar FogSequentialForward.fog[40].dispatcher probeQueries 0
scalar FogSequentialForward.fog[40].dispatcher probeAnswers 0
scalar FogSequentialForward.fog[40].dispatcher droppedJobsSLA 0
scalar FogSequentialForward.fog[40].dispatcher jobs_class_1 3590
scalar FogSequentialForward.fog[40].dispatcher localJobs_class_1 3590
scalar FogSequentialForward.fog[40].server[0] rho 0.55518716573715
scalar FogSequentialForward.fog[40].server[0] congestionRatio 0
scalar FogSequentialForward.fog[40].server[0] totalJobs 3590
scalar FogSequentialForward.fog[40].server[0] droppedJobsQueue 0
scalar FogSequentialForward.fog[40].server[0] droppedJobsTimout 0
scalar FogSequentialForward.fog[40].server[0] droppedJobsSLA 0
scalar FogSequentialForward.fog[40].server[0] droppedJobsTotal 0
scalar FogSequentialForward.fog[41].dispatcher localJobs 3622
scalar FogSequentialForward.fog[41].dispatcher internalJobs 3622
scalar FogSequentialForward.fog[41].dispatcher externalJobs 0
scalar FogSequentialForward.fog[41].dispatcher remoteJobs 0
scalar FogSequentialForward.fog[41].dispatcher probeQueries 0
scalar FogSequentialForward.fog[41].dispatcher probeAnswers 0
scalar FogSequentialForward.fog[41].dispatcher droppedJobsSLA 0
scalar FogSequentialForward.fog[41].dispatcher jobs_class_1 3622
scalar FogSequentialForward.fog[41].dispatcher localJobs_class_1 3622
scalar FogSequentialForward.fog[41].server[0] rho 0.56025075912476
scalar FogSequentialForward.fog[41].server[0] congestionRatio 0
scalar FogSequentialForward.fog[41].server[0] totalJobs 3622
scalar FogSequentialForward.fog[41].server[0] droppedJobsQueue 0
scalar FogSequentialForward.fog[41].server[0] droppedJobsTimout 0
scalar FogSequentialForward.fog[41].server[0] droppedJobsSLA 0
scalar FogSequentialForward.fog[41].server[0] droppedJobsTotal 0
scalar FogSequentialForward.fog[42].dispatcher localJobs 3576
scalar FogSequentialForward.fog[42].dispatcher internalJobs 3576
scalar FogSequentialForward.fog[42].dispatcher externalJobs 0
scalar FogSequentialForward.fog[42].dispatcher remoteJobs 0
scalar FogSequentialForward.fog[42].dispatcher probeQueries 0
scalar FogSequentialForward.fog[42].dispatcher probeAnswers 0
scalar FogSequentialForward.fog[42].dispatcher droppedJobsSLA 0
scalar FogSequentialForward.fog[42].dispatcher jobs_class_1 3576
scalar FogSequentialForward.fog[42].dispatcher localJobs_class_1 3576
scalar FogSequentialForward.fog[42].server[0] rho 0.55344516038895
scalar FogSequentialForward.fog[42].server[0] congestionRatio 0
scalar FogSequentialForward.fog[42].server[0] totalJobs 3576
scalar FogSequentialForward.fog[42].server[0] droppedJobsQueue 0
scalar FogSequentialForward.fog[42].server[0] droppedJobsTimout 0
scalar FogSequentialForward.fog[42].server[0] droppedJobsSLA 0
scalar FogSequentialForward.fog[42].server[0] droppedJobsTotal 0
scalar FogSequentialForward.fog[43].dispatcher localJobs 3609
scalar FogSequentialForward.fog[43].dispatcher internalJobs 3609
scalar FogSequentialForward.fog[43].dispatcher externalJobs 0
scalar FogSequentialForward.fog[43].dispatcher remoteJobs 0
scalar FogSequentialForward.fog[43].dispatcher probeQueries 0
scalar FogSequentialForward.fog[43].dispatcher probeAnswers 0
scalar FogSequentialForward.fog[43].dispatcher droppedJobsSLA 0
scalar FogSequentialForward.fog[43].dispatcher jobs_class_1 3609
scalar FogSequentialForward.fog[43].dispatcher localJobs_class_1 3609
scalar FogSequentialForward.fog[43].server[0] rho 0.55780452489853
scalar FogSequentialForward.fog[43].server[0] congestionRatio 0
scalar FogSequentialForward.fog[43].server[0] totalJobs 3609
scalar FogSequentialForward.fog[43].server[0] droppedJobsQueue 0
scalar FogSequentialForward.fog[43].server[0] droppedJobsTimout 0
scalar FogSequentialForward.fog[43].server[0] droppedJobsSLA 0
scalar FogSequentialForward.fog[43].server[0] droppedJobsTotal 0
scalar FogSequentialForward.fog[44].dispatcher localJobs 3565
scalar FogSequentialForward.fog[44].dispatcher internalJobs 3565
scalar FogSequentialForward.fog[44].dispatcher externalJobs 0
scalar FogSequentialForward.fog[44].dispatcher remoteJobs 0
scalar FogSequentialForward.fog[44].dispatcher probeQueries 0
scalar FogSequentialForward.fog[44].dispatcher probeAnswers 0
scalar FogSequentialForward.fog[44].dispatcher droppedJobsSLA 0
scalar FogSequentialForward.fog[44].dispatcher jobs_class_1 3565
scalar FogSequentialForward.fog[44].dispatcher localJobs_class_1 3565
scalar FogSequentialForward.fog[44].server[0] rho 0.55072599649429
scalar FogSequentialForward.fog[44].server[0] congestionRatio 0
scalar FogSequentialForward.fog[44].server[0] totalJobs 3565
scalar FogSequentialForward.fog[44].server[0] droppedJobsQueue 0
scalar FogSequentialForward.fog[44].server[0] droppedJobsTimout 0
scalar FogSequentialForward.fog[44].server[0] droppedJobsSLA 0
scalar FogSequentialForward.fog[44].server[0] droppedJobsTotal 0
scalar FogSequentialForward.fog[45].dispatcher localJobs 3660
scalar FogSequentialForward.fog[45].dispatcher internalJobs 3660
scalar FogSequentialForward.fog[45].dispatcher externalJobs 0
scalar FogSequentialForward.fog[45].dispatcher remoteJobs 0
scalar FogSequentialForward.fog[45].dispatcher probeQueries 0
scalar FogSequentialForward.fog[45].dispatcher probeAnswers 0
scalar FogSequentialForward.fog[45].dispatcher droppedJobsSLA 0
scalar FogSequentialForward.fog[45].dispatcher jobs_class_1 3660
scalar FogSequentialForward.fog[45].dispatcher localJobs_class_1 3660
scalar FogSequentialForward.fog[45].server[0] rho 0.56617248058319
scalar FogSequentialForward.fog[45].server[0] congestionRatio 0
scalar FogSequentialForward.fog[45].server[0] totalJobs 3660
scalar FogSequentialForward.fog[45].server[0] droppedJobsQueue 0
scalar FogSequentialForward.fog[45].server[0] droppedJobsTimout 0
scalar FogSequentialForward.fog[45].server[0] droppedJobsSLA 0
scalar FogSequentialForward.fog[45].server[0] droppedJobsTotal 0
scalar FogSequentialForward.fog[46].dispatcher localJobs 3560
scalar FogSequentialForward.fog[46].dispatcher internalJobs 3560
scalar FogSequentialForward.fog[46].dispatcher externalJobs 0
scalar FogSequentialForward.fog[46].dispatcher remoteJobs 0
scalar FogSequentialForward.fog[46].dispatcher probeQueries 0
scalar FogSequentialForward.fog[46].dispatcher probeAnswers 0
scalar FogSequentialForward.fog[46].dispatcher droppedJobsSLA 0
scalar FogSequentialForward.fog[46].dispatcher jobs_class_1 3560
scalar FogSequentialForward.fog[46].dispatcher localJobs_class_1 3560
scalar FogSequentialForward.fog[46].server[0] rho 0.55011492967606
scalar FogSequentialForward.fog[46].server[0] congestionRatio 0
scalar FogSequentialForward.fog[46].server[0] totalJobs 3560
scalar FogSequentialForward.fog[46].server[0] droppedJobsQueue 0
scalar FogSequentialForward.fog[46].server[0] droppedJobsTimout 0
scalar FogSequentialForward.fog[46].server[0] droppedJobsSLA 0
scalar FogSequentialForward.fog[46].server[0] droppedJobsTotal 0
scalar FogSequentialForward.fog[47].dispatcher localJobs 3532
scalar FogSequentialForward.fog[47].dispatcher internalJobs 3532
scalar FogSequentialForward.fog[47].dispatcher externalJobs 0
scalar FogSequentialForward.fog[47].dispatcher remoteJobs 0
scalar FogSequentialForward.fog[47].dispatcher probeQueries 0
scalar FogSequentialForward.fog[47].dispatcher probeAnswers 0
scalar FogSequentialForward.fog[47].dispatcher droppedJobsSLA 0
scalar FogSequentialForward.fog[47].dispatcher jobs_class_1 3532
scalar FogSequentialForward.fog[47].dispatcher localJobs_class_1 3532
scalar FogSequentialForward.fog[47].server[0] rho 0.5461773276329
scalar FogSequentialForward.fog[47].server[0] congestionRatio 0
scalar FogSequentialForward.fog[47].server[0] totalJobs 3532
scalar FogSequentialForward.fog[47].server[0] droppedJobsQueue 0
scalar FogSequentialForward.fog[47].server[0] droppedJobsTimout 0
scalar FogSequentialForward.fog[47].server[0] droppedJobsSLA 0
scalar FogSequentialForward.fog[47].server[0] droppedJobsTotal 0
scalar FogSequentialForward.fog[48].dispatcher localJobs 3652
scalar FogSequentialForward.fog[48].dispatcher internalJobs 3652
scalar FogSequentialForward.fog[48].dispatcher externalJobs 0
scalar FogSequentialForward.fog[48].dispatcher remoteJobs 0
scalar FogSequentialForward.fog[48].dispatcher probeQueries 0
scalar FogSequentialForward.fog[48].dispatcher probeAnswers 0
scalar FogSequentialForward.fog[48].dispatcher droppedJobsSLA 0
scalar FogSequentialForward.fog[48].dispatcher jobs_class_1 3652
scalar FogSequentialForward.fog[48].dispatcher localJobs_class_1 3652
scalar FogSequentialForward.fog[48].server[0] rho 0.56468844413757
scalar FogSequentialForward.fog[48].server[0] congestionRatio 0
scalar FogSequentialForward.fog[48].server[0] totalJobs 3652
scalar FogSequentialForward.fog[48].server[0] droppedJobsQueue 0
scalar FogSequentialForward.fog[48].server[0] droppedJobsTimout 0
scalar FogSequentialForward.fog[48].server[0] droppedJobsSLA 0
scalar FogSequentialForward.fog[48].server[0] droppedJobsTotal 0
scalar FogSequentialForward.fog[49].dispatcher localJobs 3623
scalar FogSequentialForward.fog[49].dispatcher internalJobs 3623
scalar FogSequentialForward.fog[49].dispatcher externalJobs 0
scalar FogSequentialForward.fog[49].dispatcher remoteJobs 0
scalar FogSequentialForward.fog[49].dispatcher probeQueries 0
scalar FogSequentialForward.fog[49].dispatcher probeAnswers 0
scalar FogSequentialForward.fog[49].dispatcher droppedJobsSLA 0
scalar FogSequentialForward.fog[49].dispatcher jobs_class_1 3623
scalar FogSequentialForward.fog[49].dispatcher localJobs_class_1 3623
scalar FogSequentialForward.fog[49].server[0] rho 0.56041216850281
scalar FogSequentialForward.fog[49].server[0] congestionRatio 0
scalar FogSequentialForward.fog[49].server[0] totalJobs 3623
scalar FogSequentialForward.fog[49].server[0] droppedJobsQueue 0
scalar FogSequentialForward.fog[49].server[0] droppedJobsTimout 0
scalar FogSequentialForward.fog[49].server[0] droppedJobsSLA 0
scalar FogSequentialForward.fog[49].server[0] droppedJobsTotal 0
scalar FogSequentialForward.fog[50].dispatcher localJobs 3595
scalar FogSequentialForward.fog[50].dispatcher internalJobs 3595
scalar FogSequentialForward.fog[50].dispatcher externalJobs 0
scalar FogSequentialForward.fog[50].dispatcher remoteJobs 0
scalar FogSequentialForward.fog[50].dispatcher probeQueries 0
scalar FogSequentialForward.fog[50].dispatcher probeAnswers 0
scalar FogSequentialForward.fog[50].dispatcher droppedJobsSLA 0
scalar FogSequentialForward.fog[50].dispatcher jobs_class_1 3595
scalar FogSequentialForward.fog[50].dispatcher localJobs_class_1 3595
scalar FogSequentialForward.fog[50].server[0] rho 0.5558295249939
scalar FogSequentialForward.fog[50].server[0] congestionRatio 0
scalar FogSequentialForward.fog[50].server[0] totalJobs 3595
scalar FogSequentialForward.fog[50].server[0] droppedJobsQueue 0
scalar FogSequentialForward.fog[50].server[0] droppedJobsTimout 0
scalar FogSequentialForward.fog[50].server[0] droppedJobsSLA 0
scalar FogSequentialForward.fog[50].server[0] droppedJobsTotal 0
scalar FogSequentialForward.fog[51].dispatcher localJobs 3704
scalar FogSequentialForward.fog[51].dispatcher internalJobs 3704
scalar FogSequentialForward.fog[51].dispatcher externalJobs 0
scalar FogSequentialForward.fog[51].dispatcher remoteJobs 0
scalar FogSequentialForward.fog[51].dispatcher probeQueries 0
scalar FogSequentialForward.fog[51].dispatcher probeAnswers 0
scalar FogSequentialForward.fog[51].dispatcher droppedJobsSLA 0
scalar FogSequentialForward.fog[51].dispatcher jobs_class_1 3704
scalar FogSequentialForward.fog[51].dispatcher localJobs_class_1 3704
scalar FogSequentialForward.fog[51].server[0] rho 0.57302403450012
scalar FogSequentialForward.fog[51].server[0] congestionRatio 0
scalar FogSequentialForward.fog[51].server[0] totalJobs 3704
scalar FogSequentialForward.fog[51].server[0] droppedJobsQueue 0
scalar FogSequentialForward.fog[51].server[0] droppedJobsTimout 0
scalar FogSequentialForward.fog[51].server[0] droppedJobsSLA 0
scalar FogSequentialForward.fog[51].server[0] droppedJobsTotal 0
scalar FogSequentialForward.fog[52].dispatcher localJobs 3683
scalar FogSequentialForward.fog[52].dispatcher internalJobs 3683
scalar FogSequentialForward.fog[52].dispatcher externalJobs 0
scalar FogSequentialForward.fog[52].dispatcher remoteJobs 0
scalar FogSequentialForward.fog[52].dispatcher probeQueries 0
scalar FogSequentialForward.fog[52].dispatcher probeAnswers 0
scalar FogSequentialForward.fog[52].dispatcher droppedJobsSLA 0
scalar FogSequentialForward.fog[52].dispatcher jobs_class_1 3683
scalar FogSequentialForward.fog[52].dispatcher localJobs_class_1 3683
scalar FogSequentialForward.fog[52].server[0] rho 0.56911373138428
scalar FogSequentialForward.fog[52].server[0] congestionRatio 0
scalar FogSequentialForward.fog[52].server[0] totalJobs 3683
scalar FogSequentialForward.fog[52].server[0] droppedJobsQueue 0
scalar FogSequentialForward.fog[52].server[0] droppedJobsTimout 0
scalar FogSequentialForward.fog[52].server[0] droppedJobsSLA 0
scalar FogSequentialForward.fog[52].server[0] droppedJobsTotal 0
scalar FogSequentialForward.fog[53].dispatcher localJobs 3529
scalar FogSequentialForward.fog[53].dispatcher internalJobs 3529
scalar FogSequentialForward.fog[53].dispatcher externalJobs 0
scalar FogSequentialForward.fog[53].dispatcher remoteJobs 0
scalar FogSequentialForward.fog[53].dispatcher probeQueries 0
scalar FogSequentialForward.fog[53].dispatcher probeAnswers 0
scalar FogSequentialForward.fog[53].dispatcher droppedJobsSLA 0
scalar FogSequentialForward.fog[53].dispatcher jobs_class_1 3529
scalar FogSequentialForward.fog[53].dispatcher localJobs_class_1 3529
scalar FogSequentialForward.fog[53].server[0] rho 0.54530549049377
scalar FogSequentialForward.fog[53].server[0] congestionRatio 0
scalar FogSequentialForward.fog[53].server[0] totalJobs 3529
scalar FogSequentialForward.fog[53].server[0] droppedJobsQueue 0
scalar FogSequentialForward.fog[53].server[0] droppedJobsTimout 0
scalar FogSequentialForward.fog[53].server[0] droppedJobsSLA 0
scalar FogSequentialForward.fog[53].server[0] droppedJobsTotal 0
scalar FogSequentialForward.fog[54].dispatcher localJobs 3573
scalar FogSequentialForward.fog[54].dispatcher internalJobs 3573
scalar FogSequentialForward.fog[54].dispatcher externalJobs 0
scalar FogSequentialForward.fog[54].dispatcher remoteJobs 0
scalar FogSequentialForward.fog[54].dispatcher probeQueries 0
scalar FogSequentialForward.fog[54].dispatcher probeAnswers 0
scalar FogSequentialForward.fog[54].dispatcher droppedJobsSLA 0
scalar FogSequentialForward.fog[54].dispatcher jobs_class_1 3573
scalar FogSequentialForward.fog[54].dispatcher localJobs_class_1 3573
scalar FogSequentialForward.fog[54].server[0] rho 0.55258822441101
scalar FogSequentialForward.fog[54].server[0] congestionRatio 0
scalar FogSequentialForward.fog[54].server[0] totalJobs 3573
scalar FogSequentialForward.fog[54].server[0] droppedJobsQueue 0
scalar FogSequentialForward.fog[54].server[0] droppedJobsTimout 0
scalar FogSequentialForward.fog[54].server[0] droppedJobsSLA 0
scalar FogSequentialForward.fog[54].server[0] droppedJobsTotal 0
scalar FogSequentialForward.fog[55].dispatcher localJobs 3634
scalar FogSequentialForward.fog[55].dispatcher internalJobs 3634
scalar FogSequentialForward.fog[55].dispatcher externalJobs 0
scalar FogSequentialForward.fog[55].dispatcher remoteJobs 0
scalar FogSequentialForward.fog[55].dispatcher probeQueries 0
scalar FogSequentialForward.fog[55].dispatcher probeAnswers 0
scalar FogSequentialForward.fog[55].dispatcher droppedJobsSLA 0
scalar FogSequentialForward.fog[55].dispatcher jobs_class_1 3634
scalar FogSequentialForward.fog[55].dispatcher localJobs_class_1 3634
scalar FogSequentialForward.fog[55].server[0] rho 0.56147336959839
scalar FogSequentialForward.fog[55].server[0] congestionRatio 0
scalar FogSequentialForward.fog[55].server[0] totalJobs 3634
scalar FogSequentialForward.fog[55].server[0] droppedJobsQueue 0
scalar FogSequentialForward.fog[55].server[0] droppedJobsTimout 0
scalar FogSequentialForward.fog[55].server[0] droppedJobsSLA 0
scalar FogSequentialForward.fog[55].server[0] droppedJobsTotal 0
scalar FogSequentialForward.fog[56].dispatcher localJobs 3606
scalar FogSequentialForward.fog[56].dispatcher internalJobs 3606
scalar FogSequentialForward.fog[56].dispatcher externalJobs 0
scalar FogSequentialForward.fog[56].dispatcher remoteJobs 0
scalar FogSequentialForward.fog[56].dispatcher probeQueries 0
scalar FogSequentialForward.fog[56].dispatcher probeAnswers 0
scalar FogSequentialForward.fog[56].dispatcher droppedJobsSLA 0
scalar FogSequentialForward.fog[56].dispatcher jobs_class_1 3606
scalar FogSequentialForward.fog[56].dispatcher localJobs_class_1 3606
scalar FogSequentialForward.fog[56].server[0] rho 0.55735260248184
scalar FogSequentialForward.fog[56].server[0] congestionRatio 0
scalar FogSequentialForward.fog[56].server[0] totalJobs 3606
scalar FogSequentialForward.fog[56].server[0] droppedJobsQueue 0
scalar FogSequentialForward.fog[56].server[0] droppedJobsTimout 0
scalar FogSequentialForward.fog[56].server[0] droppedJobsSLA 0
scalar FogSequentialForward.fog[56].server[0] droppedJobsTotal 0
scalar FogSequentialForward.fog[57].dispatcher localJobs 3493
scalar FogSequentialForward.fog[57].dispatcher internalJobs 3493
scalar FogSequentialForward.fog[57].dispatcher externalJobs 0
scalar FogSequentialForward.fog[57].dispatcher remoteJobs 0
scalar FogSequentialForward.fog[57].dispatcher probeQueries 0
scalar FogSequentialForward.fog[57].dispatcher probeAnswers 0
scalar FogSequentialForward.fog[57].dispatcher droppedJobsSLA 0
scalar FogSequentialForward.fog[57].dispatcher jobs_class_1 3493
scalar FogSequentialForward.fog[57].dispatcher localJobs_class_1 3493
scalar FogSequentialForward.fog[57].server[0] rho 0.53985089063644
scalar FogSequentialForward.fog[57].server[0] congestionRatio 0
scalar FogSequentialForward.fog[57].server[0] totalJobs 3493
scalar FogSequentialForward.fog[57].server[0] droppedJobsQueue 0
scalar FogSequentialForward.fog[57].server[0] droppedJobsTimout 0
scalar FogSequentialForward.fog[57].server[0] droppedJobsSLA 0
scalar FogSequentialForward.fog[57].server[0] droppedJobsTotal 0
scalar FogSequentialForward.fog[58].dispatcher localJobs 3497
scalar FogSequentialForward.fog[58].dispatcher internalJobs 3497
scalar FogSequentialForward.fog[58].dispatcher externalJobs 0
scalar FogSequentialForward.fog[58].dispatcher remoteJobs 0
scalar FogSequentialForward.fog[58].dispatcher probeQueries 0
scalar FogSequentialForward.fog[58].dispatcher probeAnswers 0
scalar FogSequentialForward.fog[58].dispatcher droppedJobsSLA 0
scalar FogSequentialForward.fog[58].dispatcher jobs_class_1 3497
scalar FogSequentialForward.fog[58].dispatcher localJobs_class_1 3497
scalar FogSequentialForward.fog[58].server[0] rho 0.5405730009079
scalar FogSequentialForward.fog[58].server[0] congestionRatio 0
scalar FogSequentialForward.fog[58].server[0] totalJobs 3497
scalar FogSequentialForward.fog[58].server[0] droppedJobsQueue 0
scalar FogSequentialForward.fog[58].server[0] droppedJobsTimout 0
scalar FogSequentialForward.fog[58].server[0] droppedJobsSLA 0
scalar FogSequentialForward.fog[58].server[0] droppedJobsTotal 0
scalar FogSequentialForward.fog[59].dispatcher localJobs 3647
scalar FogSequentialForward.fog[59].dispatcher internalJobs 3647
scalar FogSequentialForward.fog[59].dispatcher externalJobs 0
scalar FogSequentialForward.fog[59].dispatcher remoteJobs 0
scalar FogSequentialForward.fog[59].dispatcher probeQueries 0
scalar FogSequentialForward.fog[59].dispatcher probeAnswers 0
scalar FogSequentialForward.fog[59].dispatcher droppedJobsSLA 0
scalar FogSequentialForward.fog[59].dispatcher jobs_class_1 3647
scalar FogSequentialForward.fog[59].dispatcher localJobs_class_1 3647
scalar FogSequentialForward.fog[59].server[0] rho 0.56388276815414
scalar FogSequentialForward.fog[59].server[0] congestionRatio 0
scalar FogSequentialForward.fog[59].server[0] totalJobs 3647
scalar FogSequentialForward.fog[59].server[0] droppedJobsQueue 0
scalar FogSequentialForward.fog[59].server[0] droppedJobsTimout 0
scalar FogSequentialForward.fog[59].server[0] droppedJobsSLA 0
scalar FogSequentialForward.fog[59].server[0] droppedJobsTotal 0
scalar FogSequentialForward.fog[60].dispatcher localJobs 3481
scalar FogSequentialForward.fog[60].dispatcher internalJobs 3481
scalar FogSequentialForward.fog[60].dispatcher externalJobs 0
scalar FogSequentialForward.fog[60].dispatcher remoteJobs 0
scalar FogSequentialForward.fog[60].dispatcher probeQueries 0
scalar FogSequentialForward.fog[60].dispatcher probeAnswers 0
scalar FogSequentialForward.fog[60].dispatcher droppedJobsSLA 0
scalar FogSequentialForward.fog[60].dispatcher jobs_class_1 3481
scalar FogSequentialForward.fog[60].dispatcher localJobs_class_1 3481
scalar FogSequentialForward.fog[60].server[0] rho 0.5383512377739
scalar FogSequentialForward.fog[60].server[0] congestionRatio 0
scalar FogSequentialForward.fog[60].server[0] totalJobs 3481
scalar FogSequentialForward.fog[60].server[0] droppedJobsQueue 0
scalar FogSequentialForward.fog[60].server[0] droppedJobsTimout 0
scalar FogSequentialForward.fog[60].server[0] droppedJobsSLA 0
scalar FogSequentialForward.fog[60].server[0] droppedJobsTotal 0
scalar FogSequentialForward.fog[61].dispatcher localJobs 3559
scalar FogSequentialForward.fog[61].dispatcher internalJobs 3559
scalar FogSequentialForward.fog[61].dispatcher externalJobs 0
scalar FogSequentialForward.fog[61].dispatcher remoteJobs 0
scalar FogSequentialForward.fog[61].dispatcher probeQueries 0
scalar FogSequentialForward.fog[61].dispatcher probeAnswers 0
scalar FogSequentialForward.fog[61].dispatcher droppedJobsSLA 0
scalar FogSequentialForward.fog[61].dispatcher jobs_class_1 3559
scalar FogSequentialForward.fog[61].dispatcher localJobs_class_1 3559
scalar FogSequentialForward.fog[61].server[0] rho 0.54986882209778
scalar FogSequentialForward.fog[61].server[0] congestionRatio 0
scalar FogSequentialForward.fog[61].server[0] totalJobs 3559
scalar FogSequentialForward.fog[61].server[0] droppedJobsQueue 0
scalar FogSequentialForward.fog[61].server[0] droppedJobsTimout 0
scalar FogSequentialForward.fog[61].server[0] droppedJobsSLA 0
scalar FogSequentialForward.fog[61].server[0] droppedJobsTotal 0
scalar FogSequentialForward.fog[62].dispatcher localJobs 3585
scalar FogSequentialForward.fog[62].dispatcher internalJobs 3585
scalar FogSequentialForward.fog[62].dispatcher externalJobs 0
scalar FogSequentialForward.fog[62].dispatcher remoteJobs 0
scalar FogSequentialForward.fog[62].dispatcher probeQueries 0
scalar FogSequentialForward.fog[62].dispatcher probeAnswers 0
scalar FogSequentialForward.fog[62].dispatcher droppedJobsSLA 0
scalar FogSequentialForward.fog[62].dispatcher jobs_class_1 3585
scalar FogSequentialForward.fog[62].dispatcher localJobs_class_1 3585
scalar FogSequentialForward.fog[62].server[0] rho 0.55439561605453
scalar FogSequentialForward.fog[62].server[0] congestionRatio 0
scalar FogSequentialForward.fog[62].server[0] totalJobs 3585
scalar FogSequentialForward.fog[62].server[0] droppedJobsQueue 0
scalar FogSequentialForward.fog[62].server[0] droppedJobsTimout 0
scalar FogSequentialForward.fog[62].server[0] droppedJobsSLA 0
scalar FogSequentialForward.fog[62].server[0] droppedJobsTotal 0
scalar FogSequentialForward.fog[63].dispatcher localJobs 3671
scalar FogSequentialForward.fog[63].dispatcher internalJobs 3671
scalar FogSequentialForward.fog[63].dispatcher externalJobs 0
scalar FogSequentialForward.fog[63].dispatcher remoteJobs 0
scalar FogSequentialForward.fog[63].dispatcher probeQueries 0
scalar FogSequentialForward.fog[63].dispatcher probeAnswers 0
scalar FogSequentialForward.fog[63].dispatcher droppedJobsSLA 0
scalar FogSequentialForward.fog[63].dispatcher jobs_class_1 3671
scalar FogSequentialForward.fog[63].dispatcher localJobs_class_1 3671
scalar FogSequentialForward.fog[63].server[0] rho 0.56744605302811
scalar FogSequentialForward.fog[63].server[0] congestionRatio 0
scalar FogSequentialForward.fog[63].server[0] totalJobs 3671
scalar FogSequentialForward.fog[63].server[0] droppedJobsQueue 0
scalar FogSequentialForward.fog[63].server[0] droppedJobsTimout 0
scalar FogSequentialForward.fog[63].server[0] droppedJobsSLA 0
scalar FogSequentialForward.fog[63].server[0] droppedJobsTotal 0
scalar FogSequentialForward.fog[64].dispatcher localJobs 3543
scalar FogSequentialForward.fog[64].dispatcher internalJobs 3543
scalar FogSequentialForward.fog[64].dispatcher externalJobs 0
scalar FogSequentialForward.fog[64].dispatcher remoteJobs 0
scalar FogSequentialForward.fog[64].dispatcher probeQueries 0
scalar FogSequentialForward.fog[64].dispatcher probeAnswers 0
scalar FogSequentialForward.fog[64].dispatcher droppedJobsSLA 0
scalar FogSequentialForward.fog[64].dispatcher jobs_class_1 3543
scalar FogSequentialForward.fog[64].dispatcher localJobs_class_1 3543
scalar FogSequentialForward.fog[64].server[0] rho 0.54823267459869
scalar FogSequentialForward.fog[64].server[0] congestionRatio 0
scalar FogSequentialForward.fog[64].server[0] totalJobs 3543
scalar FogSequentialForward.fog[64].server[0] droppedJobsQueue 0
scalar FogSequentialForward.fog[64].server[0] droppedJobsTimout 0
scalar FogSequentialForward.fog[64].server[0] droppedJobsSLA 4
scalar FogSequentialForward.fog[64].server[0] droppedJobsTotal 4
scalar FogSequentialForward.fog[65].dispatcher localJobs 3644
scalar FogSequentialForward.fog[65].dispatcher internalJobs 3644
scalar FogSequentialForward.fog[65].dispatcher externalJobs 0
scalar FogSequentialForward.fog[65].dispatcher remoteJobs 0
scalar FogSequentialForward.fog[65].dispatcher probeQueries 0
scalar FogSequentialForward.fog[65].dispatcher probeAnswers 0
scalar FogSequentialForward.fog[65].dispatcher droppedJobsSLA 0
scalar FogSequentialForward.fog[65].dispatcher jobs_class_1 3644
scalar FogSequentialForward.fog[65].dispatcher localJobs_class_1 3644
scalar FogSequentialForward.fog[65].server[0] rho 0.56316483020782
scalar FogSequentialForward.fog[65].server[0] congestionRatio 0
scalar FogSequentialForward.fog[65].server[0] totalJobs 3644
scalar FogSequentialForward.fog[65].server[0] droppedJobsQueue 0
scalar FogSequentialForward.fog[65].server[0] droppedJobsTimout 0
scalar FogSequentialForward.fog[65].server[0] droppedJobsSLA 0
scalar FogSequentialForward.fog[65].server[0] droppedJobsTotal 0
scalar FogSequentialForward.fog[66].dispatcher localJobs 3628
scalar FogSequentialForward.fog[66].dispatcher internalJobs 3628
scalar FogSequentialForward.fog[66].dispatcher externalJobs 0
scalar FogSequentialForward.fog[66].dispatcher remoteJobs 0
scalar FogSequentialForward.fog[66].dispatcher probeQueries 0
scalar FogSequentialForward.fog[66].dispatcher probeAnswers 0
scalar FogSequentialForward.fog[66].dispatcher droppedJobsSLA 0
scalar FogSequentialForward.fog[66].dispatcher jobs_class_1 3628
scalar FogSequentialForward.fog[66].dispatcher localJobs_class_1 3628
scalar FogSequentialForward.fog[66].server[0] rho 0.56102389097214
scalar FogSequentialForward.fog[66].server[0] congestionRatio 0
scalar FogSequentialForward.fog[66].server[0] totalJobs 3628
scalar FogSequentialForward.fog[66].server[0] droppedJobsQueue 0
scalar FogSequentialForward.fog[66].server[0] droppedJobsTimout 0
scalar FogSequentialForward.fog[66].server[0] droppedJobsSLA 0
scalar FogSequentialForward.fog[66].server[0] droppedJobsTotal 0
scalar FogSequentialForward.fog[67].dispatcher localJobs 3669
scalar FogSequentialForward.fog[67].dispatcher internalJobs 3669
scalar FogSequentialForward.fog[67].dispatcher externalJobs 0
scalar FogSequentialForward.fog[67].dispatcher remoteJobs 0
scalar FogSequentialForward.fog[67].dispatcher probeQueries 0
scalar FogSequentialForward.fog[67].dispatcher probeAnswers 0
scalar FogSequentialForward.fog[67].dispatcher droppedJobsSLA 0
scalar FogSequentialForward.fog[67].dispatcher jobs_class_1 3669
scalar FogSequentialForward.fog[67].dispatcher localJobs_class_1 3669
scalar FogSequentialForward.fog[67].server[0] rho 0.56731063127518
scalar FogSequentialForward.fog[67].server[0] congestionRatio 0
scalar FogSequentialForward.fog[67].server[0] totalJobs 3669
scalar FogSequentialForward.fog[67].server[0] droppedJobsQueue 0
scalar FogSequentialForward.fog[67].server[0] droppedJobsTimout 0
scalar FogSequentialForward.fog[67].server[0] droppedJobsSLA 0
scalar FogSequentialForward.fog[67].server[0] droppedJobsTotal 0
scalar FogSequentialForward.fog[68].dispatcher localJobs 3585
scalar FogSequentialForward.fog[68].dispatcher internalJobs 3585
scalar FogSequentialForward.fog[68].dispatcher externalJobs 0
scalar FogSequentialForward.fog[68].dispatcher remoteJobs 0
scalar FogSequentialForward.fog[68].dispatcher probeQueries 0
scalar FogSequentialForward.fog[68].dispatcher probeAnswers 0
scalar FogSequentialForward.fog[68].dispatcher droppedJobsSLA 0
scalar FogSequentialForward.fog[68].dispatcher jobs_class_1 3585
scalar FogSequentialForward.fog[68].dispatcher localJobs_class_1 3585
scalar FogSequentialForward.fog[68].server[0] rho 0.55412572622299
scalar FogSequentialForward.fog[68].server[0] congestionRatio 0
scalar FogSequentialForward.fog[68].server[0] totalJobs 3585
scalar FogSequentialForward.fog[68].server[0] droppedJobsQueue 0
scalar FogSequentialForward.fog[68].server[0] droppedJobsTimout 0
scalar FogSequentialForward.fog[68].server[0] droppedJobsSLA 2
scalar FogSequentialForward.fog[68].server[0] droppedJobsTotal 2
scalar FogSequentialForward.fog[69].dispatcher localJobs 3575
scalar FogSequentialForward.fog[69].dispatcher internalJobs 3575
scalar FogSequentialForward.fog[69].dispatcher externalJobs 0
scalar FogSequentialForward.fog[69].dispatcher remoteJobs 0
scalar FogSequentialForward.fog[69].dispatcher probeQueries 0
scalar FogSequentialForward.fog[69].dispatcher probeAnswers 0
scalar FogSequentialForward.fog[69].dispatcher droppedJobsSLA 0
scalar FogSequentialForward.fog[69].dispatcher jobs_class_1 3575
scalar FogSequentialForward.fog[69].dispatcher localJobs_class_1 3575
scalar FogSequentialForward.fog[69].server[0] rho 0.55254060029984
scalar FogSequentialForward.fog[69].server[0] congestionRatio 0
scalar FogSequentialForward.fog[69].server[0] totalJobs 3575
scalar FogSequentialForward.fog[69].server[0] droppedJobsQueue 0
scalar FogSequentialForward.fog[69].server[0] droppedJobsTimout 0
scalar FogSequentialForward.fog[69].server[0] droppedJobsSLA 0
scalar FogSequentialForward.fog[69].server[0] droppedJobsTotal 0
scalar FogSequentialForward.fog[70].dispatcher localJobs 3566
scalar FogSequentialForward.fog[70].dispatcher internalJobs 3566
scalar FogSequentialForward.fog[70].dispatcher externalJobs 0
scalar FogSequentialForward.fog[70].dispatcher remoteJobs 0
scalar FogSequentialForward.fog[70].dispatcher probeQueries 0
scalar FogSequentialForward.fog[70].dispatcher probeAnswers 0
scalar FogSequentialForward.fog[70].dispatcher droppedJobsSLA 0
scalar FogSequentialForward.fog[70].dispatcher jobs_class_1 3566
scalar FogSequentialForward.fog[70].dispatcher localJobs_class_1 3566
scalar FogSequentialForward.fog[70].server[0] rho 0.55135542154312
scalar FogSequentialForward.fog[70].server[0] congestionRatio 0
scalar FogSequentialForward.fog[70].server[0] totalJobs 3566
scalar FogSequentialForward.fog[70].server[0] droppedJobsQueue 0
scalar FogSequentialForward.fog[70].server[0] droppedJobsTimout 0
scalar FogSequentialForward.fog[70].server[0] droppedJobsSLA 0
scalar FogSequentialForward.fog[70].server[0] droppedJobsTotal 0
scalar FogSequentialForward.fog[71].dispatcher localJobs 3558
scalar FogSequentialForward.fog[71].dispatcher internalJobs 3558
scalar FogSequentialForward.fog[71].dispatcher externalJobs 0
scalar FogSequentialForward.fog[71].dispatcher remoteJobs 0
scalar FogSequentialForward.fog[71].dispatcher probeQueries 0
scalar FogSequentialForward.fog[71].dispatcher probeAnswers 0
scalar FogSequentialForward.fog[71].dispatcher droppedJobsSLA 0
scalar FogSequentialForward.fog[71].dispatcher jobs_class_1 3558
scalar FogSequentialForward.fog[71].dispatcher localJobs_class_1 3558
scalar FogSequentialForward.fog[71].server[0] rho 0.55012589693069
scalar FogSequentialForward.fog[71].server[0] congestionRatio 0
scalar FogSequentialForward.fog[71].server[0] totalJobs 3558
scalar FogSequentialForward.fog[71].server[0] droppedJobsQueue 0
scalar FogSequentialForward.fog[71].server[0] droppedJobsTimout 0
scalar FogSequentialForward.fog[71].server[0] droppedJobsSLA 0
scalar FogSequentialForward.fog[71].server[0] droppedJobsTotal 0
scalar FogSequentialForward.fog[72].dispatcher localJobs 3656
scalar FogSequentialForward.fog[72].dispatcher internalJobs 3656
scalar FogSequentialForward.fog[72].dispatcher externalJobs 0
scalar FogSequentialForward.fog[72].dispatcher remoteJobs 0
scalar FogSequentialForward.fog[72].dispatcher probeQueries 0
scalar FogSequentialForward.fog[72].dispatcher probeAnswers 0
scalar FogSequentialForward.fog[72].dispatcher droppedJobsSLA 0
scalar FogSequentialForward.fog[72].dispatcher jobs_class_1 3656
scalar FogSequentialForward.fog[72].dispatcher localJobs_class_1 3656
scalar FogSequentialForward.fog[72].server[0] rho 0.56525439023972
scalar FogSequentialForward.fog[72].server[0] congestionRatio 0
scalar FogSequentialForward.fog[72].server[0] totalJobs 3656
scalar FogSequentialForward.fog[72].server[0] droppedJobsQueue 0
scalar FogSequentialForward.fog[72].server[0] droppedJobsTimout 0
scalar FogSequentialForward.fog[72].server[0] droppedJobsSLA 0
scalar FogSequentialForward.fog[72].server[0] droppedJobsTotal 0
scalar FogSequentialForward.fog[73].dispatcher localJobs 3575
scalar FogSequentialForward.fog[73].dispatcher internalJobs 3575
scalar FogSequentialForward.fog[73].dispatcher externalJobs 0
scalar FogSequentialForward.fog[73].dispatcher remoteJobs 0
scalar FogSequentialForward.fog[73].dispatcher probeQueries 0
scalar FogSequentialForward.fog[73].dispatcher probeAnswers 0
scalar FogSequentialForward.fog[73].dispatcher droppedJobsSLA 0
scalar FogSequentialForward.fog[73].dispatcher jobs_class_1 3575
scalar FogSequentialForward.fog[73].dispatcher localJobs_class_1 3575
scalar FogSequentialForward.fog[73].server[0] rho 0.55274325609207
scalar FogSequentialForward.fog[73].server[0] congestionRatio 0
scalar FogSequentialForward.fog[73].server[0] totalJobs 3575
scalar FogSequentialForward.fog[73].server[0] droppedJobsQueue 0
scalar FogSequentialForward.fog[73].server[0] droppedJobsTimout 0
scalar FogSequentialForward.fog[73].server[0] droppedJobsSLA 0
scalar FogSequentialForward.fog[73].server[0] droppedJobsTotal 0
scalar FogSequentialForward.fog[74].dispatcher localJobs 3628
scalar FogSequentialForward.fog[74].dispatcher internalJobs 3628
scalar FogSequentialForward.fog[74].dispatcher externalJobs 0
scalar FogSequentialForward.fog[74].dispatcher remoteJobs 0
scalar FogSequentialForward.fog[74].dispatcher probeQueries 0
scalar FogSequentialForward.fog[74].dispatcher probeAnswers 0
scalar FogSequentialForward.fog[74].dispatcher droppedJobsSLA 0
scalar FogSequentialForward.fog[74].dispatcher jobs_class_1 3628
scalar FogSequentialForward.fog[74].dispatcher localJobs_class_1 3628
scalar FogSequentialForward.fog[74].server[0] rho 0.56106001138687
scalar FogSequentialForward.fog[74].server[0] congestionRatio 0
scalar FogSequentialForward.fog[74].server[0] totalJobs 3628
scalar FogSequentialForward.fog[74].server[0] droppedJobsQueue 0
scalar FogSequentialForward.fog[74].server[0] droppedJobsTimout 0
scalar FogSequentialForward.fog[74].server[0] droppedJobsSLA 0
scalar FogSequentialForward.fog[74].server[0] droppedJobsTotal 0
scalar FogSequentialForward.fog[75].dispatcher localJobs 3631
scalar FogSequentialForward.fog[75].dispatcher internalJobs 3631
scalar FogSequentialForward.fog[75].dispatcher externalJobs 0
scalar FogSequentialForward.fog[75].dispatcher remoteJobs 0
scalar FogSequentialForward.fog[75].dispatcher probeQueries 0
scalar FogSequentialForward.fog[75].dispatcher probeAnswers 0
scalar FogSequentialForward.fog[75].dispatcher droppedJobsSLA 0
scalar FogSequentialForward.fog[75].dispatcher jobs_class_1 3631
scalar FogSequentialForward.fog[75].dispatcher localJobs_class_1 3631
scalar FogSequentialForward.fog[75].server[0] rho 0.5615017414093
scalar FogSequentialForward.fog[75].server[0] congestionRatio 0
scalar FogSequentialForward.fog[75].server[0] totalJobs 3631
scalar FogSequentialForward.fog[75].server[0] droppedJobsQueue 0
scalar FogSequentialForward.fog[75].server[0] droppedJobsTimout 0
scalar FogSequentialForward.fog[75].server[0] droppedJobsSLA 0
scalar FogSequentialForward.fog[75].server[0] droppedJobsTotal 0
scalar FogSequentialForward.fog[76].dispatcher localJobs 3586
scalar FogSequentialForward.fog[76].dispatcher internalJobs 3586
scalar FogSequentialForward.fog[76].dispatcher externalJobs 0
scalar FogSequentialForward.fog[76].dispatcher remoteJobs 0
scalar FogSequentialForward.fog[76].dispatcher probeQueries 0
scalar FogSequentialForward.fog[76].dispatcher probeAnswers 0
scalar FogSequentialForward.fog[76].dispatcher droppedJobsSLA 0
scalar FogSequentialForward.fog[76].dispatcher jobs_class_1 3586
scalar FogSequentialForward.fog[76].dispatcher localJobs_class_1 3586
scalar FogSequentialForward.fog[76].server[0] rho 0.55422621965408
scalar FogSequentialForward.fog[76].server[0] congestionRatio 0
scalar FogSequentialForward.fog[76].server[0] totalJobs 3586
scalar FogSequentialForward.fog[76].server[0] droppedJobsQueue 0
scalar FogSequentialForward.fog[76].server[0] droppedJobsTimout 0
scalar FogSequentialForward.fog[76].server[0] droppedJobsSLA 0
scalar FogSequentialForward.fog[76].server[0] droppedJobsTotal 0
scalar FogSequentialForward.fog[77].dispatcher localJobs 3564
scalar FogSequentialForward.fog[77].dispatcher internalJobs 3564
[...]
scalar FogSequentialForward.fog[81].dispatcher localJobs_class_1 3615
scalar FogSequentialForward.fog[81].server[0] rho 0.558658182621
scalar FogSequentialForward.fog[81].server[0] congestionRatio 0
scalar FogSequentialForward.fog[81].server[0] totalJobs 3615
scalar FogSequentialForward.fog[81].server[0] droppedJobsQueue 0
scalar FogSequentialForward.fog[81].server[0] droppedJobsTimout 0
scalar FogSequentialForward.fog[81].server[0] droppedJobsSLA 0
scalar FogSequentialForward.fog[81].server[0] droppedJobsTotal 0
scalar FogSequentialForward.fog[82].dispatcher localJobs 3622
scalar FogSequentialForward.fog[82].dispatcher internalJobs 3622
scalar FogSequentialForward.fog[82].dispatcher externalJobs 0
scalar FogSequentialForward.fog[82].dispatcher remoteJobs 0
scalar FogSequentialForward.fog[82].dispatcher probeQueries 0
scalar FogSequentialForward.fog[82].dispatcher probeAnswers 0
scalar FogSequentialForward.fog[82].dispatcher droppedJobsSLA 0
scalar FogSequentialForward.fog[82].dispatcher jobs_class_1 3622
scalar FogSequentialForward.fog[82].dispatcher localJobs_class_1 3622
scalar FogSequentialForward.fog[82].server[0] rho 0.5596244931221
scalar FogSequentialForward.fog[82].server[0] congestionRatio 0
scalar FogSequentialForward.fog[82].server[0] totalJobs 3622
scalar FogSequentialForward.fog[82].server[0] droppedJobsQueue 0
scalar FogSequentialForward.fog[82].server[0] droppedJobsTimout 0
scalar FogSequentialForward.fog[82].server[0] droppedJobsSLA 0
scalar FogSequentialForward.fog[82].server[0] droppedJobsTotal 0
scalar FogSequentialForward.fog[83].dispatcher localJobs 3631
scalar FogSequentialForward.fog[83].dispatcher internalJobs 3631
scalar FogSequentialForward.fog[83].dispatcher externalJobs 0
scalar FogSequentialForward.fog[83].dispatcher remoteJobs 0
scalar FogSequentialForward.fog[83].dispatcher probeQueries 0
scalar FogSequentialForward.fog[83].dispatcher probeAnswers 0
scalar FogSequentialForward.fog[83].dispatcher droppedJobsSLA 0
scalar FogSequentialForward.fog[83].dispatcher jobs_class_1 3631
scalar FogSequentialForward.fog[83].dispatcher localJobs_class_1 3631
scalar FogSequentialForward.fog[83].server[0] rho 0.56112468242645
scalar FogSequentialForward.fog[83].server[0] congestionRatio 0
scalar FogSequentialForward.fog[83].server[0] totalJobs 3631
scalar FogSequentialForward.fog[83].server[0] droppedJobsQueue 0
scalar FogSequentialForward.fog[83].server[0] droppedJobsTimout 0
scalar FogSequentialForward.fog[83].server[0] droppedJobsSLA 0
scalar FogSequentialForward.fog[83].server[0] droppedJobsTotal 0
scalar FogSequentialForward.fog[84].dispatcher localJobs 3609
scalar FogSequentialForward.fog[84].dispatcher internalJobs 3609
scalar FogSequentialForward.fog[84].dispatcher externalJobs 0
scalar FogSequentialForward.fog[84].dispatcher remoteJobs 0
scalar FogSequentialForward.fog[84].dispatcher probeQueries 0
scalar FogSequentialForward.fog[84].dispatcher probeAnswers 0
scalar FogSequentialForward.fog[84].dispatcher droppedJobsSLA 0
scalar FogSequentialForward.fog[84].dispatcher jobs_class_1 3609
scalar FogSequentialForward.fog[84].dispatcher localJobs_class_1 3609
scalar FogSequentialForward.fog[84].server[0] rho 0.55781495571136
scalar FogSequentialForward.fog[84].server[0] congestionRatio 0
scalar FogSequentialForward.fog[84].server[0] totalJobs 3609
scalar FogSequentialForward.fog[84].server[0] droppedJobsQueue 0
scalar FogSequentialForward.fog[84].server[0] droppedJobsTimout 0
scalar FogSequentialForward.fog[84].server[0] droppedJobsSLA 0
scalar FogSequentialForward.fog[84].server[0] droppedJobsTotal 0
scalar FogSequentialForward.fog[85].dispatcher localJobs 3552
scalar FogSequentialForward.fog[85].dispatcher internalJobs 3552
scalar FogSequentialForward.fog[85].dispatcher externalJobs 0
scalar FogSequentialForward.fog[85].dispatcher remoteJobs 0
scalar FogSequentialForward.fog[85].dispatcher probeQueries 0
scalar FogSequentialForward.fog[85].dispatcher probeAnswers 0
scalar FogSequentialForward.fog[85].dispatcher droppedJobsSLA 0
scalar FogSequentialForward.fog[85].dispatcher jobs_class_1 3552
scalar FogSequentialForward.fog[85].dispatcher localJobs_class_1 3552
scalar FogSequentialForward.fog[85].server[0] rho 0.54922562837601
scalar FogSequentialForward.fog[85].server[0] congestionRatio 0
scalar FogSequentialForward.fog[85].server[0] totalJobs 3552
scalar FogSequentialForward.fog[85].server[0] droppedJobsQueue 0
scalar FogSequentialForward.fog[85].server[0] droppedJobsTimout 0
scalar FogSequentialForward.fog[85].server[0] droppedJobsSLA 0
scalar FogSequentialForward.fog[85].server[0] droppedJobsTotal 0
scalar FogSequentialForward.fog[86].dispatcher localJobs 3642
scalar FogSequentialForward.fog[86].dispatcher internalJobs 3642
scalar FogSequentialForward.fog[86].dispatcher externalJobs 0
scalar FogSequentialForward.fog[86].dispatcher remoteJobs 0
scalar FogSequentialForward.fog[86].dispatcher probeQueries 0
scalar FogSequentialForward.fog[86].dispatcher probeAnswers 0
scalar FogSequentialForward.fog[86].dispatcher droppedJobsSLA 0
scalar FogSequentialForward.fog[86].dispatcher jobs_class_1 3642
scalar FogSequentialForward.fog[86].dispatcher localJobs_class_1 3642
scalar FogSequentialForward.fog[86].server[0] rho 0.56298846006393
scalar FogSequentialForward.fog[86].server[0] congestionRatio 0
scalar FogSequentialForward.fog[86].server[0] totalJobs 3642
scalar FogSequentialForward.fog[86].server[0] droppedJobsQueue 0
scalar FogSequentialForward.fog[86].server[0] droppedJobsTimout 0
scalar FogSequentialForward.fog[86].server[0] droppedJobsSLA 0
scalar FogSequentialForward.fog[86].server[0] droppedJobsTotal 0
scalar FogSequentialForward.fog[87].dispatcher localJobs 3636
scalar FogSequentialForward.fog[87].dispatcher internalJobs 3636
scalar FogSequentialForward.fog[87].dispatcher externalJobs 0
scalar FogSequentialForward.fog[87].dispatcher remoteJobs 0
scalar FogSequentialForward.fog[87].dispatcher probeQueries 0
scalar FogSequentialForward.fog[87].dispatcher probeAnswers 0
scalar FogSequentialForward.fog[87].dispatcher droppedJobsSLA 0
scalar FogSequentialForward.fog[87].dispatcher jobs_class_1 3636
scalar FogSequentialForward.fog[87].dispatcher localJobs_class_1 3636
scalar FogSequentialForward.fog[87].server[0] rho 0.56245422363281
scalar FogSequentialForward.fog[87].server[0] congestionRatio 0
scalar FogSequentialForward.fog[87].server[0] totalJobs 3636
scalar FogSequentialForward.fog[87].server[0] droppedJobsQueue 0
scalar FogSequentialForward.fog[87].server[0] droppedJobsTimout 0
scalar FogSequentialForward.fog[87].server[0] droppedJobsSLA 0
scalar FogSequentialForward.fog[87].server[0] droppedJobsTotal 0
scalar FogSequentialForward.fog[88].dispatcher localJobs 3629
scalar FogSequentialForward.fog[88].dispatcher internalJobs 3629
scalar FogSequentialForward.fog[88].dispatcher externalJobs 0
scalar FogSequentialForward.fog[88].dispatcher remoteJobs 0
scalar FogSequentialForward.fog[88].dispatcher probeQueries 0
scalar FogSequentialForward.fog[88].dispatcher probeAnswers 0
scalar FogSequentialForward.fog[88].dispatcher droppedJobsSLA 0
scalar FogSequentialForward.fog[88].dispatcher jobs_class_1 3629
scalar FogSequentialForward.fog[88].dispatcher localJobs_class_1 3629
scalar FogSequentialForward.fog[88].server[0] rho 0.56127333641052
scalar FogSequentialForward.fog[88].server[0] congestionRatio 0
scalar FogSequentialForward.fog[88].server[0] totalJobs 3629
scalar FogSequentialForward.fog[88].server[0] droppedJobsQueue 0
scalar FogSequentialForward.fog[88].server[0] droppedJobsTimout 0
scalar FogSequentialForward.fog[88].server[0] droppedJobsSLA 0
scalar FogSequentialForward.fog[88].server[0] droppedJobsTotal 0
scalar FogSequentialForward.fog[89].dispatcher localJobs 3593
scalar FogSequentialForward.fog[89].dispatcher internalJobs 3593
scalar FogSequentialForward.fog[89].dispatcher externalJobs 0
scalar FogSequentialForward.fog[89].dispatcher remoteJobs 0
scalar FogSequentialForward.fog[89].dispatcher probeQueries 0
scalar FogSequentialForward.fog[89].dispatcher probeAnswers 0
scalar FogSequentialForward.fog[89].dispatcher droppedJobsSLA 0
scalar FogSequentialForward.fog[89].dispatcher jobs_class_1 3593
scalar FogSequentialForward.fog[89].dispatcher localJobs_class_1 3593
scalar FogSequentialForward.fog[89].server[0] rho 0.55522119998932
scalar FogSequentialForward.fog[89].server[0] congestionRatio 0
scalar FogSequentialForward.fog[89].server[0] totalJobs 3593
scalar FogSequentialForward.fog[89].server[0] droppedJobsQueue 0
scalar FogSequentialForward.fog[89].server[0] droppedJobsTimout 0
scalar FogSequentialForward.fog[89].server[0] droppedJobsSLA 0
scalar FogSequentialForward.fog[89].server[0] droppedJobsTotal 0
scalar FogSequentialForward.fog[90].dispatcher localJobs 3553
scalar FogSequentialForward.fog[90].dispatcher internalJobs 3553
scalar FogSequentialForward.fog[90].dispatcher externalJobs 0
scalar FogSequentialForward.fog[90].dispatcher remoteJobs 0
scalar FogSequentialForward.fog[90].dispatcher probeQueries 0
scalar FogSequentialForward.fog[90].dispatcher probeAnswers 0
scalar FogSequentialForward.fog[90].dispatcher droppedJobsSLA 0
scalar FogSequentialForward.fog[90].dispatcher jobs_class_1 3553
scalar FogSequentialForward.fog[90].dispatcher localJobs_class_1 3553
scalar FogSequentialForward.fog[90].server[0] rho 0.54909592866898
scalar FogSequentialForward.fog[90].server[0] congestionRatio 0
scalar FogSequentialForward.fog[90].server[0] totalJobs 3553
scalar FogSequentialForward.fog[90].server[0] droppedJobsQueue 0
scalar FogSequentialForward.fog[90].server[0] droppedJobsTimout 0
scalar FogSequentialForward.fog[90].server[0] droppedJobsSLA 0
scalar FogSequentialForward.fog[90].server[0] droppedJobsTotal 0
scalar FogSequentialForward.fog[91].dispatcher localJobs 3541
scalar FogSequentialForward.fog[91].dispatcher internalJobs 3541
scalar FogSequentialForward.fog[91].dispatcher externalJobs 0
scalar FogSequentialForward.fog[91].dispatcher remoteJobs 0
scalar FogSequentialForward.fog[91].dispatcher probeQueries 0
scalar FogSequentialForward.fog[91].dispatcher probeAnswers 0
scalar FogSequentialForward.fog[91].dispatcher droppedJobsSLA 0
scalar FogSequentialForward.fog[91].dispatcher jobs_class_1 3541
scalar FogSequentialForward.fog[91].dispatcher localJobs_class_1 3541
scalar FogSequentialForward.fog[91].server[0] rho 0.54760199785233
scalar FogSequentialForward.fog[91].server[0] congestionRatio 0
scalar FogSequentialForward.fog[91].server[0] totalJobs 3541
scalar FogSequentialForward.fog[91].server[0] droppedJobsQueue 0
scalar FogSequentialForward.fog[91].server[0] droppedJobsTimout 0
scalar FogSequentialForward.fog[91].server[0] droppedJobsSLA 1
scalar FogSequentialForward.fog[91].server[0] droppedJobsTotal 1
scalar FogSequentialForward.fog[92].dispatcher localJobs 3600
scalar FogSequentialForward.fog[92].dispatcher internalJobs 3600
scalar FogSequentialForward.fog[92].dispatcher externalJobs 0
scalar FogSequentialForward.fog[92].dispatcher remoteJobs 0
scalar FogSequentialForward.fog[92].dispatcher probeQueries 0
scalar FogSequentialForward.fog[92].dispatcher probeAnswers 0
scalar FogSequentialForward.fog[92].dispatcher droppedJobsSLA 0
scalar FogSequentialForward.fog[92].dispatcher jobs_class_1 3600
scalar FogSequentialForward.fog[92].dispatcher localJobs_class_1 3600
scalar FogSequentialForward.fog[92].server[0] rho 0.55662792921066
scalar FogSequentialForward.fog[92].server[0] congestionRatio 0
scalar FogSequentialForward.fog[92].server[0] totalJobs 3600
scalar FogSequentialForward.fog[92].server[0] droppedJobsQueue 0
scalar FogSequentialForward.fog[92].server[0] droppedJobsTimout 0
scalar FogSequentialForward.fog[92].server[0] droppedJobsSLA 0
scalar FogSequentialForward.fog[92].server[0] droppedJobsTotal 0
scalar FogSequentialForward.fog[93].dispatcher localJobs 3579
scalar FogSequentialForward.fog[93].dispatcher internalJobs 3579
scalar FogSequentialForward.fog[93].dispatcher externalJobs 0
scalar FogSequentialForward.fog[93].dispatcher remoteJobs 0
scalar FogSequentialForward.fog[93].dispatcher probeQueries 0
scalar FogSequentialForward.fog[93].dispatcher probeAnswers 0
scalar FogSequentialForward.fog[93].dispatcher droppedJobsSLA 0
scalar FogSequentialForward.fog[93].dispatcher jobs_class_1 3579
scalar FogSequentialForward.fog[93].dispatcher localJobs_class_1 3579
scalar FogSequentialForward.fog[93].server[0] rho 0.55336529016495
scalar FogSequentialForward.fog[93].server[0] congestionRatio 0
scalar FogSequentialForward.fog[93].server[0] totalJobs 3579
scalar FogSequentialForward.fog[93].server[0] droppedJobsQueue 0
scalar FogSequentialForward.fog[93].server[0] droppedJobsTimout 0
scalar FogSequentialForward.fog[93].server[0] droppedJobsSLA 0
scalar FogSequentialForward.fog[93].server[0] droppedJobsTotal 0
scalar FogSequentialForward.fog[94].dispatcher localJobs 3591
scalar FogSequentialForward.fog[94].dispatcher internalJobs 3591
scalar FogSequentialForward.fog[94].dispatcher externalJobs 0
scalar FogSequentialForward.fog[94].dispatcher remoteJobs 0
scalar FogSequentialForward.fog[94].dispatcher probeQueries 0
scalar FogSequentialForward.fog[94].dispatcher probeAnswers 0
scalar FogSequentialForward.fog[94].dispatcher droppedJobsSLA 0
scalar FogSequentialForward.fog[94].dispatcher jobs_class_1 3591
scalar FogSequentialForward.fog[94].dispatcher localJobs_class_1 3591
scalar FogSequentialForward.fog[94].server[0] rho 0.55530190467834
scalar FogSequentialForward.fog[94].server[0] congestionRatio 0
scalar FogSequentialForward.fog[94].server[0] totalJobs 3591
scalar FogSequentialForward.fog[94].server[0] droppedJobsQueue 0
scalar FogSequentialForward.fog[94].server[0] droppedJobsTimout 0
scalar FogSequentialForward.fog[94].server[0] droppedJobsSLA 0
scalar FogSequentialForward.fog[94].server[0] droppedJobsTotal 0
scalar FogSequentialForward.fog[95].dispatcher localJobs 3681
scalar FogSequentialForward.fog[95].dispatcher internalJobs 3681
scalar FogSequentialForward.fog[95].dispatcher externalJobs 0
scalar FogSequentialForward.fog[95].dispatcher remoteJobs 0
scalar FogSequentialForward.fog[95].dispatcher probeQueries 0
scalar FogSequentialForward.fog[95].dispatcher probeAnswers 0
scalar FogSequentialForward.fog[95].dispatcher droppedJobsSLA 0
scalar FogSequentialForward.fog[95].dispatcher jobs_class_1 3681
scalar FogSequentialForward.fog[95].dispatcher localJobs_class_1 3681
scalar FogSequentialForward.fog[95].server[0] rho 0.56892853975296
scalar FogSequentialForward.fog[95].server[0] congestionRatio 0
scalar FogSequentialForward.fog[95].server[0] totalJobs 3681
scalar FogSequentialForward.fog[95].server[0] droppedJobsQueue 0
scalar FogSequentialForward.fog[95].server[0] droppedJobsTimout 0
scalar FogSequentialForward.fog[95].server[0] droppedJobsSLA 0
scalar FogSequentialForward.fog[95].server[0] droppedJobsTotal 0
scalar FogSequentialForward.fog[96].dispatcher localJobs 3699
scalar FogSequentialForward.fog[96].dispatcher internalJobs 3699
scalar FogSequentialForward.fog[96].dispatcher externalJobs 0
scalar FogSequentialForward.fog[96].dispatcher remoteJobs 0
scalar FogSequentialForward.fog[96].dispatcher probeQueries 0
scalar FogSequentialForward.fog[96].dispatcher probeAnswers 0
scalar FogSequentialForward.fog[96].dispatcher droppedJobsSLA 0
scalar FogSequentialForward.fog[96].dispatcher jobs_class_1 3699
scalar FogSequentialForward.fog[96].dispatcher localJobs_class_1 3699
scalar FogSequentialForward.fog[96].server[0] rho 0.57217091321945
scalar FogSequentialForward.fog[96].server[0] congestionRatio 0
scalar FogSequentialForward.fog[96].server[0] totalJobs 3699
scalar FogSequentialForward.fog[96].server[0] droppedJobsQueue 0
scalar FogSequentialForward.fog[96].server[0] droppedJobsTimout 0
scalar FogSequentialForward.fog[96].server[0] droppedJobsSLA 0
scalar FogSequentialForward.fog[96].server[0] droppedJobsTotal 0
scalar FogSequentialForward.fog[97].dispatcher localJobs 3637
scalar FogSequentialForward.fog[97].dispatcher internalJobs 3637
scalar FogSequentialForward.fog[97].dispatcher externalJobs 0
scalar FogSequentialForward.fog[97].dispatcher remoteJobs 0
scalar FogSequentialForward.fog[97].dispatcher probeQueries 0
scalar FogSequentialForward.fog[97].dispatcher probeAnswers 0
scalar FogSequentialForward.fog[97].dispatcher droppedJobsSLA 0
scalar FogSequentialForward.fog[97].dispatcher jobs_class_1 3637
scalar FogSequentialForward.fog[97].dispatcher localJobs_class_1 3637
scalar FogSequentialForward.fog[97].server[0] rho 0.56244993209839
scalar FogSequentialForward.fog[97].server[0] congestionRatio 0
scalar FogSequentialForward.fog[97].server[0] totalJobs 3637
scalar FogSequentialForward.fog[97].server[0] droppedJobsQueue 0
scalar FogSequentialForward.fog[97].server[0] droppedJobsTimout 0
scalar FogSequentialForward.fog[97].server[0] droppedJobsSLA 1
scalar FogSequentialForward.fog[97].server[0] droppedJobsTotal 1
scalar FogSequentialForward.fog[98].dispatcher localJobs 3567
scalar FogSequentialForward.fog[98].dispatcher internalJobs 3567
scalar FogSequentialForward.fog[98].dispatcher externalJobs 0
scalar FogSequentialForward.fog[98].dispatcher remoteJobs 0
scalar FogSequentialForward.fog[98].dispatcher probeQueries 0
scalar FogSequentialForward.fog[98].dispatcher probeAnswers 0
scalar FogSequentialForward.fog[98].dispatcher droppedJobsSLA 0
scalar FogSequentialForward.fog[98].dispatcher jobs_class_1 3567
scalar FogSequentialForward.fog[98].dispatcher localJobs_class_1 3567
scalar FogSequentialForward.fog[98].server[0] rho 0.55155330896378
scalar FogSequentialForward.fog[98].server[0] congestionRatio 0
scalar FogSequentialForward.fog[98].server[0] totalJobs 3567
scalar FogSequentialForward.fog[98].server[0] droppedJobsQueue 0
scalar FogSequentialForward.fog[98].server[0] droppedJobsTimout 0
scalar FogSequentialForward.fog[98].server[0] droppedJobsSLA 0
scalar FogSequentialForward.fog[98].server[0] droppedJobsTotal 0
scalar FogSequentialForward.fog[99].dispatcher localJobs 3597
scalar FogSequentialForward.fog[99].dispatcher internalJobs 3597
scalar FogSequentialForward.fog[99].dispatcher externalJobs 0
scalar FogSequentialForward.fog[99].dispatcher remoteJobs 0
scalar FogSequentialForward.fog[99].dispatcher probeQueries 0
scalar FogSequentialForward.fog[99].dispatcher probeAnswers 0
scalar FogSequentialForward.fog[99].dispatcher droppedJobsSLA 0
scalar FogSequentialForward.fog[99].dispatcher jobs_class_1 3597
scalar FogSequentialForward.fog[99].dispatcher localJobs_class_1 3597
scalar FogSequentialForward.fog[99].server[0] rho 0.55623638629913
scalar FogSequentialForward.fog[99].server[0] congestionRatio 0
scalar FogSequentialForward.fog[99].server[0] totalJobs 3597
scalar FogSequentialForward.fog[99].server[0] droppedJobsQueue 0
scalar FogSequentialForward.fog[99].server[0] droppedJobsTimout 0
scalar FogSequentialForward.fog[99].server[0] droppedJobsSLA 0
scalar FogSequentialForward.fog[99].server[0] droppedJobsTotal 0
scalar FogSequentialForward.sink avg_responseTime_1 2.7204996426596
scalar FogSequentialForward.sink p90_responseTime_1 1.510205787443
scalar FogSequentialForward.sink med_responseTime_1 1.510205787443
scalar FogSequentialForward.sink avg_delayTime_1 0
scalar FogSequentialForward.sink p90_delayTime_1 0
scalar FogSequentialForward.sink med_delayTime_1 0
scalar FogSequentialForward.sink avg_queuingTime_1 1.0505690009965
scalar FogSequentialForward.sink p90_queuingTime_1 0
scalar FogSequentialForward.sink med_queuingTime_1 0
scalar FogSequentialForward.sink avg_serviceTime_1 1.6699306416631
scalar FogSequentialForward.sink p90_serviceTime_1 1.510205787443
scalar FogSequentialForward.sink med_serviceTime_1 1.510205787443
scalar FogSequentialForward.sink avg_balancerTime_1 0
scalar FogSequentialForward.sink p90_balancerTime_1 0
scalar FogSequentialForward.sink med_balancerTime_1 0
scalar FogSequentialForward.sink avg_balancerCount_1 1
scalar FogSequentialForward.sink p90_balancerCount_1 1
scalar FogSequentialForward.sink med_balancerCount_1 1

