version 2
run Fog-mul_10-rho_09-thr_6-3-20190714-07:59:26-110449
attr configname Fog-mul_10-rho_09-thr_6
attr datetime 20190714-07:59:26
attr experiment Fog-mul_10-rho_09-thr_6
attr inifile FogSequentialForward.ini
attr iterationvars ""
attr iterationvarsf ""
attr measurement ""
attr network FogSequentialForward
attr processid 110449
attr repetition 3
attr replication #3
attr resultdir results
attr runnumber 3
attr seedset 3
param FogSequentialForward.proctimeMul 1.0
param FogSequentialForward.rho 0.9
param FogSequentialForward.fog[*].dispatcher.thr 6
param FogSequentialForward.nSources 100
param FogSequentialForward.rho 0.9
param FogSequentialForward.proctimeMul 1.0
param FogSequentialForward.source[*].appId 1
param FogSequentialForward.source[*].realTime true
param FogSequentialForward.source[*].multiHop true
param FogSequentialForward.fog[*].nServers 1
param FogSequentialForward.fog[*].dispatcher.fanOut 1
param FogSequentialForward.fog[*].server[*].timeSlice -1s
param FogSequentialForward.fog[*].server[*].timeout -1s
param FogSequentialForward.fog[*].server[*].capacity 20
param FogSequentialForward.fog[*].server[*].fifo true
param FogSequentialForward.fog[*].server[*].maxServiceTime -1s
param FogSequentialForward.fog[*].dispatcher.thr 1

scalar FogSequentialForward.fog[0].dispatcher localJobs 14780
scalar FogSequentialForward.fog[0].dispatcher internalJobs 16479
scalar FogSequentialForward.fog[0].dispatcher externalJobs 6015167
scalar FogSequentialForward.fog[0].dispatcher remoteJobs 6015483
scalar FogSequentialForward.fog[0].dispatcher probeQueries 0
scalar FogSequentialForward.fog[0].dispatcher probeAnswers 0
scalar FogSequentialForward.fog[0].dispatcher droppedJobsSLA 1383
scalar FogSequentialForward.fog[0].dispatcher jobs_class_1 6031646
scalar FogSequentialForward.fog[0].dispatcher remoteJobs_class_1 6015483
scalar FogSequentialForward.fog[0].dispatcher localJobs_class_1 14780
scalar FogSequentialForward.fog[0].dispatcher droppedJobsSLA_class_1 1383
scalar FogSequentialForward.fog[0].server[0] rho 0.9999982714653
scalar FogSequentialForward.fog[0].server[0] congestionRatio 0
scalar FogSequentialForward.fog[0].server[0] totalJobs 14780
scalar FogSequentialForward.fog[0].server[0] droppedJobsQueue 777
scalar FogSequentialForward.fog[0].server[0] droppedJobsTimout 0
scalar FogSequentialForward.fog[0].server[0] droppedJobsSLA 9085
scalar FogSequentialForward.fog[0].server[0] droppedJobsTotal 9862
scalar FogSequentialForward.fog[1].dispatcher localJobs 14863
scalar FogSequentialForward.fog[1].dispatcher internalJobs 16464
scalar FogSequentialForward.fog[1].dispatcher externalJobs 6010104
scalar FogSequentialForward.fog[1].dispatcher remoteJobs 6010322
scalar FogSequentialForward.fog[1].dispatcher probeQueries 0
scalar FogSequentialForward.fog[1].dispatcher probeAnswers 0
scalar FogSequentialForward.fog[1].dispatcher droppedJobsSLA 1383
scalar FogSequentialForward.fog[1].dispatcher jobs_class_1 6026568
scalar FogSequentialForward.fog[1].dispatcher remoteJobs_class_1 6010322
scalar FogSequentialForward.fog[1].dispatcher localJobs_class_1 14863
scalar FogSequentialForward.fog[1].dispatcher droppedJobsSLA_class_1 1383
scalar FogSequentialForward.fog[1].server[0] rho 0.99999648332596
scalar FogSequentialForward.fog[1].server[0] congestionRatio 0
scalar FogSequentialForward.fog[1].server[0] totalJobs 14863
scalar FogSequentialForward.fog[1].server[0] droppedJobsQueue 781
scalar FogSequentialForward.fog[1].server[0] droppedJobsTimout 0
scalar FogSequentialForward.fog[1].server[0] droppedJobsSLA 9166
scalar FogSequentialForward.fog[1].server[0] droppedJobsTotal 9947
scalar FogSequentialForward.fog[2].dispatcher localJobs 14838
scalar FogSequentialForward.fog[2].dispatcher internalJobs 16285
scalar FogSequentialForward.fog[2].dispatcher externalJobs 6013215
scalar FogSequentialForward.fog[2].dispatcher remoteJobs 6013354
scalar FogSequentialForward.fog[2].dispatcher probeQueries 0
scalar FogSequentialForward.fog[2].dispatcher probeAnswers 0
scalar FogSequentialForward.fog[2].dispatcher droppedJobsSLA 1308
scalar FogSequentialForward.fog[2].dispatcher jobs_class_1 6029500
scalar FogSequentialForward.fog[2].dispatcher remoteJobs_class_1 6013354
scalar FogSequentialForward.fog[2].dispatcher localJobs_class_1 14838
scalar FogSequentialForward.fog[2].dispatcher droppedJobsSLA_class_1 1308
scalar FogSequentialForward.fog[2].server[0] rho 0.99999701976776
scalar FogSequentialForward.fog[2].server[0] congestionRatio 0
scalar FogSequentialForward.fog[2].server[0] totalJobs 14838
scalar FogSequentialForward.fog[2].server[0] droppedJobsQueue 779
scalar FogSequentialForward.fog[2].server[0] droppedJobsTimout 0
scalar FogSequentialForward.fog[2].server[0] droppedJobsSLA 9185
scalar FogSequentialForward.fog[2].server[0] droppedJobsTotal 9964
scalar FogSequentialForward.fog[3].dispatcher localJobs 14769
scalar FogSequentialForward.fog[3].dispatcher internalJobs 16381
scalar FogSequentialForward.fog[3].dispatcher externalJobs 6011498
scalar FogSequentialForward.fog[3].dispatcher remoteJobs 6011773
scalar FogSequentialForward.fog[3].dispatcher probeQueries 0
scalar FogSequentialForward.fog[3].dispatcher probeAnswers 0
scalar FogSequentialForward.fog[3].dispatcher droppedJobsSLA 1337
scalar FogSequentialForward.fog[3].dispatcher jobs_class_1 6027879
scalar FogSequentialForward.fog[3].dispatcher remoteJobs_class_1 6011773
scalar FogSequentialForward.fog[3].dispatcher localJobs_class_1 14769
scalar FogSequentialForward.fog[3].dispatcher droppedJobsSLA_class_1 1337
scalar FogSequentialForward.fog[3].server[0] rho 0.99999755620956
scalar FogSequentialForward.fog[3].server[0] congestionRatio 0
scalar FogSequentialForward.fog[3].server[0] totalJobs 14769
scalar FogSequentialForward.fog[3].server[0] droppedJobsQueue 771
scalar FogSequentialForward.fog[3].server[0] droppedJobsTimout 0
scalar FogSequentialForward.fog[3].server[0] droppedJobsSLA 9079
scalar FogSequentialForward.fog[3].server[0] droppedJobsTotal 9850
scalar FogSequentialForward.fog[4].dispatcher localJobs 14784
scalar FogSequentialForward.fog[4].dispatcher internalJobs 16061
scalar FogSequentialForward.fog[4].dispatcher externalJobs 6012378
scalar FogSequentialForward.fog[4].dispatcher remoteJobs 6012245
scalar FogSequentialForward.fog[4].dispatcher probeQueries 0
scalar FogSequentialForward.fog[4].dispatcher probeAnswers 0
scalar FogSequentialForward.fog[4].dispatcher droppedJobsSLA 1410
scalar FogSequentialForward.fog[4].dispatcher jobs_class_1 6028439
scalar FogSequentialForward.fog[4].dispatcher remoteJobs_class_1 6012245
scalar FogSequentialForward.fog[4].dispatcher localJobs_class_1 14784
scalar FogSequentialForward.fog[4].dispatcher droppedJobsSLA_class_1 1410
scalar FogSequentialForward.fog[4].server[0] rho 0.99999618530273
scalar FogSequentialForward.fog[4].server[0] congestionRatio 0
scalar FogSequentialForward.fog[4].server[0] totalJobs 14784
scalar FogSequentialForward.fog[4].server[0] droppedJobsQueue 774
scalar FogSequentialForward.fog[4].server[0] droppedJobsTimout 0
scalar FogSequentialForward.fog[4].server[0] droppedJobsSLA 9063
scalar FogSequentialForward.fog[4].server[0] droppedJobsTotal 9837
scalar FogSequentialForward.fog[5].dispatcher localJobs 14781
scalar FogSequentialForward.fog[5].dispatcher internalJobs 16242
scalar FogSequentialForward.fog[5].dispatcher externalJobs 6009881
scalar FogSequentialForward.fog[5].dispatcher remoteJobs 6009991
scalar FogSequentialForward.fog[5].dispatcher probeQueries 0
scalar FogSequentialForward.fog[5].dispatcher probeAnswers 0
scalar FogSequentialForward.fog[5].dispatcher droppedJobsSLA 1351
scalar FogSequentialForward.fog[5].dispatcher jobs_class_1 6026123
scalar FogSequentialForward.fog[5].dispatcher remoteJobs_class_1 6009991
scalar FogSequentialForward.fog[5].dispatcher localJobs_class_1 14781
scalar FogSequentialForward.fog[5].dispatcher droppedJobsSLA_class_1 1351
scalar FogSequentialForward.fog[5].server[0] rho 0.99999541044235
scalar FogSequentialForward.fog[5].server[0] congestionRatio 0
scalar FogSequentialForward.fog[5].server[0] totalJobs 14781
scalar FogSequentialForward.fog[5].server[0] droppedJobsQueue 777
scalar FogSequentialForward.fog[5].server[0] droppedJobsTimout 0
scalar FogSequentialForward.fog[5].server[0] droppedJobsSLA 9098
scalar FogSequentialForward.fog[5].server[0] droppedJobsTotal 9875
scalar FogSequentialForward.fog[6].dispatcher localJobs 14860
scalar FogSequentialForward.fog[6].dispatcher internalJobs 16156
scalar FogSequentialForward.fog[6].dispatcher externalJobs 6014669
scalar FogSequentialForward.fog[6].dispatcher remoteJobs 6014580
scalar FogSequentialForward.fog[6].dispatcher probeQueries 0
scalar FogSequentialForward.fog[6].dispatcher probeAnswers 0
scalar FogSequentialForward.fog[6].dispatcher droppedJobsSLA 1385
scalar FogSequentialForward.fog[6].dispatcher jobs_class_1 6030825
scalar FogSequentialForward.fog[6].dispatcher remoteJobs_class_1 6014580
scalar FogSequentialForward.fog[6].dispatcher localJobs_class_1 14860
scalar FogSequentialForward.fog[6].dispatcher droppedJobsSLA_class_1 1385
scalar FogSequentialForward.fog[6].server[0] rho 0.99999487400055
scalar FogSequentialForward.fog[6].server[0] congestionRatio 0
scalar FogSequentialForward.fog[6].server[0] totalJobs 14860
scalar FogSequentialForward.fog[6].server[0] droppedJobsQueue 778
scalar FogSequentialForward.fog[6].server[0] droppedJobsTimout 0
scalar FogSequentialForward.fog[6].server[0] droppedJobsSLA 9178
scalar FogSequentialForward.fog[6].server[0] droppedJobsTotal 9956
scalar FogSequentialForward.fog[7].dispatcher localJobs 14866
scalar FogSequentialForward.fog[7].dispatcher internalJobs 16101
scalar FogSequentialForward.fog[7].dispatcher externalJobs 6009380
scalar FogSequentialForward.fog[7].dispatcher remoteJobs 6009202
scalar FogSequentialForward.fog[7].dispatcher probeQueries 0
scalar FogSequentialForward.fog[7].dispatcher probeAnswers 0
scalar FogSequentialForward.fog[7].dispatcher droppedJobsSLA 1413
scalar FogSequentialForward.fog[7].dispatcher jobs_class_1 6025481
scalar FogSequentialForward.fog[7].dispatcher remoteJobs_class_1 6009202
scalar FogSequentialForward.fog[7].dispatcher localJobs_class_1 14866
scalar FogSequentialForward.fog[7].dispatcher droppedJobsSLA_class_1 1413
scalar FogSequentialForward.fog[7].server[0] rho 0.99999439716339
scalar FogSequentialForward.fog[7].server[0] congestionRatio 0
scalar FogSequentialForward.fog[7].server[0] totalJobs 14866
scalar FogSequentialForward.fog[7].server[0] droppedJobsQueue 780
scalar FogSequentialForward.fog[7].server[0] droppedJobsTimout 0
scalar FogSequentialForward.fog[7].server[0] droppedJobsSLA 9155
scalar FogSequentialForward.fog[7].server[0] droppedJobsTotal 9935
scalar FogSequentialForward.fog[8].dispatcher localJobs 14824
scalar FogSequentialForward.fog[8].dispatcher internalJobs 16542
scalar FogSequentialForward.fog[8].dispatcher externalJobs 6010739
scalar FogSequentialForward.fog[8].dispatcher remoteJobs 6011053
scalar FogSequentialForward.fog[8].dispatcher probeQueries 0
scalar FogSequentialForward.fog[8].dispatcher probeAnswers 0
scalar FogSequentialForward.fog[8].dispatcher droppedJobsSLA 1404
scalar FogSequentialForward.fog[8].dispatcher jobs_class_1 6027281
scalar FogSequentialForward.fog[8].dispatcher remoteJobs_class_1 6011053
scalar FogSequentialForward.fog[8].dispatcher localJobs_class_1 14824
scalar FogSequentialForward.fog[8].dispatcher droppedJobsSLA_class_1 1404
scalar FogSequentialForward.fog[8].server[0] rho 0.99999308586121
scalar FogSequentialForward.fog[8].server[0] congestionRatio 0
scalar FogSequentialForward.fog[8].server[0] totalJobs 14824
scalar FogSequentialForward.fog[8].server[0] droppedJobsQueue 775
scalar FogSequentialForward.fog[8].server[0] droppedJobsTimout 0
scalar FogSequentialForward.fog[8].server[0] droppedJobsSLA 9107
scalar FogSequentialForward.fog[8].server[0] droppedJobsTotal 9882
scalar FogSequentialForward.fog[9].dispatcher localJobs 14762
scalar FogSequentialForward.fog[9].dispatcher internalJobs 16449
scalar FogSequentialForward.fog[9].dispatcher externalJobs 6006663
scalar FogSequentialForward.fog[9].dispatcher remoteJobs 6006945
scalar FogSequentialForward.fog[9].dispatcher probeQueries 0
scalar FogSequentialForward.fog[9].dispatcher probeAnswers 0
scalar FogSequentialForward.fog[9].dispatcher droppedJobsSLA 1405
scalar FogSequentialForward.fog[9].dispatcher jobs_class_1 6023112
scalar FogSequentialForward.fog[9].dispatcher remoteJobs_class_1 6006945
scalar FogSequentialForward.fog[9].dispatcher localJobs_class_1 14762
scalar FogSequentialForward.fog[9].dispatcher droppedJobsSLA_class_1 1405
scalar FogSequentialForward.fog[9].server[0] rho 0.99999809265137
scalar FogSequentialForward.fog[9].server[0] congestionRatio 0
scalar FogSequentialForward.fog[9].server[0] totalJobs 14762
scalar FogSequentialForward.fog[9].server[0] droppedJobsQueue 777
scalar FogSequentialForward.fog[9].server[0] droppedJobsTimout 0
scalar FogSequentialForward.fog[9].server[0] droppedJobsSLA 9169
scalar FogSequentialForward.fog[9].server[0] droppedJobsTotal 9946
scalar FogSequentialForward.fog[10].dispatcher localJobs 14851
scalar FogSequentialForward.fog[10].dispatcher internalJobs 16374
scalar FogSequentialForward.fog[10].dispatcher externalJobs 6011144
scalar FogSequentialForward.fog[10].dispatcher remoteJobs 6011296
scalar FogSequentialForward.fog[10].dispatcher probeQueries 0
scalar FogSequentialForward.fog[10].dispatcher probeAnswers 0
scalar FogSequentialForward.fog[10].dispatcher droppedJobsSLA 1371
scalar FogSequentialForward.fog[10].dispatcher jobs_class_1 6027518
scalar FogSequentialForward.fog[10].dispatcher remoteJobs_class_1 6011296
scalar FogSequentialForward.fog[10].dispatcher localJobs_class_1 14851
scalar FogSequentialForward.fog[10].dispatcher droppedJobsSLA_class_1 1371
scalar FogSequentialForward.fog[10].server[0] rho 0.99999493360519
scalar FogSequentialForward.fog[10].server[0] congestionRatio 0
scalar FogSequentialForward.fog[10].server[0] totalJobs 14851
scalar FogSequentialForward.fog[10].server[0] droppedJobsQueue 781
scalar FogSequentialForward.fog[10].server[0] droppedJobsTimout 0
scalar FogSequentialForward.fog[10].server[0] droppedJobsSLA 9206
scalar FogSequentialForward.fog[10].server[0] droppedJobsTotal 9987
scalar FogSequentialForward.fog[11].dispatcher localJobs 14915
scalar FogSequentialForward.fog[11].dispatcher internalJobs 16236
scalar FogSequentialForward.fog[11].dispatcher externalJobs 6015439
scalar FogSequentialForward.fog[11].dispatcher remoteJobs 6015351
scalar FogSequentialForward.fog[11].dispatcher probeQueries 0
scalar FogSequentialForward.fog[11].dispatcher probeAnswers 0
scalar FogSequentialForward.fog[11].dispatcher droppedJobsSLA 1409
scalar FogSequentialForward.fog[11].dispatcher jobs_class_1 6031675
scalar FogSequentialForward.fog[11].dispatcher remoteJobs_class_1 6015351
scalar FogSequentialForward.fog[11].dispatcher localJobs_class_1 14915
scalar FogSequentialForward.fog[11].dispatcher droppedJobsSLA_class_1 1409
scalar FogSequentialForward.fog[11].server[0] rho 0.99991953372955
scalar FogSequentialForward.fog[11].server[0] congestionRatio 0
scalar FogSequentialForward.fog[11].server[0] totalJobs 14915
scalar FogSequentialForward.fog[11].server[0] droppedJobsQueue 783
scalar FogSequentialForward.fog[11].server[0] droppedJobsTimout 0
scalar FogSequentialForward.fog[11].server[0] droppedJobsSLA 9186
scalar FogSequentialForward.fog[11].server[0] droppedJobsTotal 9969
scalar FogSequentialForward.fog[12].dispatcher localJobs 14762
scalar FogSequentialForward.fog[12].dispatcher internalJobs 16084
scalar FogSequentialForward.fog[12].dispatcher externalJobs 6011688
scalar FogSequentialForward.fog[12].dispatcher remoteJobs 6011625
scalar FogSequentialForward.fog[12].dispatcher probeQueries 0
scalar FogSequentialForward.fog[12].dispatcher probeAnswers 0
scalar FogSequentialForward.fog[12].dispatcher droppedJobsSLA 1385
scalar FogSequentialForward.fog[12].dispatcher jobs_class_1 6027772
scalar FogSequentialForward.fog[12].dispatcher remoteJobs_class_1 6011625
scalar FogSequentialForward.fog[12].dispatcher localJobs_class_1 14762
scalar FogSequentialForward.fog[12].dispatcher droppedJobsSLA_class_1 1385
scalar FogSequentialForward.fog[12].server[0] rho 0.99999696016312
scalar FogSequentialForward.fog[12].server[0] congestionRatio 0
scalar FogSequentialForward.fog[12].server[0] totalJobs 14762
scalar FogSequentialForward.fog[12].server[0] droppedJobsQueue 777
scalar FogSequentialForward.fog[12].server[0] droppedJobsTimout 0
scalar FogSequentialForward.fog[12].server[0] droppedJobsSLA 9084
scalar FogSequentialForward.fog[12].server[0] droppedJobsTotal 9861
scalar FogSequentialForward.fog[13].dispatcher localJobs 14834
scalar FogSequentialForward.fog[13].dispatcher internalJobs 16167
scalar FogSequentialForward.fog[13].dispatcher externalJobs 6013321
scalar FogSequentialForward.fog[13].dispatcher remoteJobs 6013254
scalar FogSequentialForward.fog[13].dispatcher probeQueries 0
scalar FogSequentialForward.fog[13].dispatcher probeAnswers 0
scalar FogSequentialForward.fog[13].dispatcher droppedJobsSLA 1400
scalar FogSequentialForward.fog[13].dispatcher jobs_class_1 6029488
scalar FogSequentialForward.fog[13].dispatcher remoteJobs_class_1 6013254
scalar FogSequentialForward.fog[13].dispatcher localJobs_class_1 14834
scalar FogSequentialForward.fog[13].dispatcher droppedJobsSLA_class_1 1400
scalar FogSequentialForward.fog[13].server[0] rho 0.99999541044235
scalar FogSequentialForward.fog[13].server[0] congestionRatio 0
scalar FogSequentialForward.fog[13].server[0] totalJobs 14834
scalar FogSequentialForward.fog[13].server[0] droppedJobsQueue 775
scalar FogSequentialForward.fog[13].server[0] droppedJobsTimout 0
scalar FogSequentialForward.fog[13].server[0] droppedJobsSLA 9170
scalar FogSequentialForward.fog[13].server[0] droppedJobsTotal 9945
scalar FogSequentialForward.fog[14].dispatcher localJobs 14819
scalar FogSequentialForward.fog[14].dispatcher internalJobs 16393
scalar FogSequentialForward.fog[14].dispatcher externalJobs 6013852
scalar FogSequentialForward.fog[14].dispatcher remoteJobs 6014048
scalar FogSequentialForward.fog[14].dispatcher probeQueries 0
scalar FogSequentialForward.fog[14].dispatcher probeAnswers 0
scalar FogSequentialForward.fog[14].dispatcher droppedJobsSLA 1378
scalar FogSequentialForward.fog[14].dispatcher jobs_class_1 6030245
scalar FogSequentialForward.fog[14].dispatcher remoteJobs_class_1 6014048
scalar FogSequentialForward.fog[14].dispatcher localJobs_class_1 14819
scalar FogSequentialForward.fog[14].dispatcher droppedJobsSLA_class_1 1378
scalar FogSequentialForward.fog[14].server[0] rho 0.99999713897705
scalar FogSequentialForward.fog[14].server[0] congestionRatio 0
scalar FogSequentialForward.fog[14].server[0] totalJobs 14819
scalar FogSequentialForward.fog[14].server[0] droppedJobsQueue 780
scalar FogSequentialForward.fog[14].server[0] droppedJobsTimout 0
scalar FogSequentialForward.fog[14].server[0] droppedJobsSLA 9090
scalar FogSequentialForward.fog[14].server[0] droppedJobsTotal 9870
scalar FogSequentialForward.fog[15].dispatcher localJobs 14831
scalar FogSequentialForward.fog[15].dispatcher internalJobs 16171
scalar FogSequentialForward.fog[15].dispatcher externalJobs 6014343
scalar FogSequentialForward.fog[15].dispatcher remoteJobs 6014300
scalar FogSequentialForward.fog[15].dispatcher probeQueries 0
scalar FogSequentialForward.fog[15].dispatcher probeAnswers 0
scalar FogSequentialForward.fog[15].dispatcher droppedJobsSLA 1383
scalar FogSequentialForward.fog[15].dispatcher jobs_class_1 6030514
scalar FogSequentialForward.fog[15].dispatcher remoteJobs_class_1 6014300
scalar FogSequentialForward.fog[15].dispatcher localJobs_class_1 14831
scalar FogSequentialForward.fog[15].dispatcher droppedJobsSLA_class_1 1383
scalar FogSequentialForward.fog[15].server[0] rho 0.99999517202377
scalar FogSequentialForward.fog[15].server[0] congestionRatio 0
scalar FogSequentialForward.fog[15].server[0] totalJobs 14831
scalar FogSequentialForward.fog[15].server[0] droppedJobsQueue 779
scalar FogSequentialForward.fog[15].server[0] droppedJobsTimout 0
scalar FogSequentialForward.fog[15].server[0] droppedJobsSLA 9151
scalar FogSequentialForward.fog[15].server[0] droppedJobsTotal 9930
scalar FogSequentialForward.fog[16].dispatcher localJobs 14769
scalar FogSequentialForward.fog[16].dispatcher internalJobs 16245
scalar FogSequentialForward.fog[16].dispatcher externalJobs 6014287
scalar FogSequentialForward.fog[16].dispatcher remoteJobs 6014436
scalar FogSequentialForward.fog[16].dispatcher probeQueries 0
scalar FogSequentialForward.fog[16].dispatcher probeAnswers 0
scalar FogSequentialForward.fog[16].dispatcher droppedJobsSLA 1327
scalar FogSequentialForward.fog[16].dispatcher jobs_class_1 6030532
scalar FogSequentialForward.fog[16].dispatcher remoteJobs_class_1 6014436
scalar FogSequentialForward.fog[16].dispatcher localJobs_class_1 14769
scalar FogSequentialForward.fog[16].dispatcher droppedJobsSLA_class_1 1327
scalar FogSequentialForward.fog[16].server[0] rho 0.99999707937241
scalar FogSequentialForward.fog[16].server[0] congestionRatio 0
scalar FogSequentialForward.fog[16].server[0] totalJobs 14769
scalar FogSequentialForward.fog[16].server[0] droppedJobsQueue 777
scalar FogSequentialForward.fog[16].server[0] droppedJobsTimout 0
scalar FogSequentialForward.fog[16].server[0] droppedJobsSLA 9073
scalar FogSequentialForward.fog[16].server[0] droppedJobsTotal 9850
scalar FogSequentialForward.fog[17].dispatcher localJobs 14803
scalar FogSequentialForward.fog[17].dispatcher internalJobs 16039
scalar FogSequentialForward.fog[17].dispatcher externalJobs 6009327
scalar FogSequentialForward.fog[17].dispatcher remoteJobs 6009104
scalar FogSequentialForward.fog[17].dispatcher probeQueries 0
scalar FogSequentialForward.fog[17].dispatcher probeAnswers 0
scalar FogSequentialForward.fog[17].dispatcher droppedJobsSLA 1459
scalar FogSequentialForward.fog[17].dispatcher jobs_class_1 6025366
scalar FogSequentialForward.fog[17].dispatcher remoteJobs_class_1 6009104
scalar FogSequentialForward.fog[17].dispatcher localJobs_class_1 14803
scalar FogSequentialForward.fog[17].dispatcher droppedJobsSLA_class_1 1459
scalar FogSequentialForward.fog[17].server[0] rho 0.99999499320984
scalar FogSequentialForward.fog[17].server[0] congestionRatio 0
scalar FogSequentialForward.fog[17].server[0] totalJobs 14803
scalar FogSequentialForward.fog[17].server[0] droppedJobsQueue 776
scalar FogSequentialForward.fog[17].server[0] droppedJobsTimout 0
scalar FogSequentialForward.fog[17].server[0] droppedJobsSLA 9102
scalar FogSequentialForward.fog[17].server[0] droppedJobsTotal 9878
scalar FogSequentialForward.fog[18].dispatcher localJobs 14837
scalar FogSequentialForward.fog[18].dispatcher internalJobs 15931
scalar FogSequentialForward.fog[18].dispatcher externalJobs 6011576
scalar FogSequentialForward.fog[18].dispatcher remoteJobs 6011284
scalar FogSequentialForward.fog[18].dispatcher probeQueries 0
scalar FogSequentialForward.fog[18].dispatcher probeAnswers 0
scalar FogSequentialForward.fog[18].dispatcher droppedJobsSLA 1386
scalar FogSequentialForward.fog[18].dispatcher jobs_class_1 6027507
scalar FogSequentialForward.fog[18].dispatcher remoteJobs_class_1 6011284
scalar FogSequentialForward.fog[18].dispatcher localJobs_class_1 14837
scalar FogSequentialForward.fog[18].dispatcher droppedJobsSLA_class_1 1386
scalar FogSequentialForward.fog[18].server[0] rho 0.99999487400055
scalar FogSequentialForward.fog[18].server[0] congestionRatio 0
scalar FogSequentialForward.fog[18].server[0] totalJobs 14837
scalar FogSequentialForward.fog[18].server[0] droppedJobsQueue 777
scalar FogSequentialForward.fog[18].server[0] droppedJobsTimout 0
scalar FogSequentialForward.fog[18].server[0] droppedJobsSLA 9159
scalar FogSequentialForward.fog[18].server[0] droppedJobsTotal 9936
scalar FogSequentialForward.fog[19].dispatcher localJobs 14800
scalar FogSequentialForward.fog[19].dispatcher internalJobs 16358
scalar FogSequentialForward.fog[19].dispatcher externalJobs 6012363
scalar FogSequentialForward.fog[19].dispatcher remoteJobs 6012563
scalar FogSequentialForward.fog[19].dispatcher probeQueries 0
scalar FogSequentialForward.fog[19].dispatcher probeAnswers 0
scalar FogSequentialForward.fog[19].dispatcher droppedJobsSLA 1358
scalar FogSequentialForward.fog[19].dispatcher jobs_class_1 6028721
scalar FogSequentialForward.fog[19].dispatcher remoteJobs_class_1 6012563
scalar FogSequentialForward.fog[19].dispatcher localJobs_class_1 14800
scalar FogSequentialForward.fog[19].dispatcher droppedJobsSLA_class_1 1358
scalar FogSequentialForward.fog[19].server[0] rho 0.99999344348907
scalar FogSequentialForward.fog[19].server[0] congestionRatio 0
scalar FogSequentialForward.fog[19].server[0] totalJobs 14800
scalar FogSequentialForward.fog[19].server[0] droppedJobsQueue 776
scalar FogSequentialForward.fog[19].server[0] droppedJobsTimout 0
scalar FogSequentialForward.fog[19].server[0] droppedJobsSLA 9130
scalar FogSequentialForward.fog[19].server[0] droppedJobsTotal 9906
scalar FogSequentialForward.fog[20].dispatcher localJobs 14844
scalar FogSequentialForward.fog[20].dispatcher internalJobs 16045
scalar FogSequentialForward.fog[20].dispatcher externalJobs 6013857
scalar FogSequentialForward.fog[20].dispatcher remoteJobs 6013714
scalar FogSequentialForward.fog[20].dispatcher probeQueries 0
scalar FogSequentialForward.fog[20].dispatcher probeAnswers 0
scalar FogSequentialForward.fog[20].dispatcher droppedJobsSLA 1344
scalar FogSequentialForward.fog[20].dispatcher jobs_class_1 6029902
scalar FogSequentialForward.fog[20].dispatcher remoteJobs_class_1 6013714
scalar FogSequentialForward.fog[20].dispatcher localJobs_class_1 14844
scalar FogSequentialForward.fog[20].dispatcher droppedJobsSLA_class_1 1344
scalar FogSequentialForward.fog[20].server[0] rho 0.99999475479126
scalar FogSequentialForward.fog[20].server[0] congestionRatio 0
scalar FogSequentialForward.fog[20].server[0] totalJobs 14844
scalar FogSequentialForward.fog[20].server[0] droppedJobsQueue 778
scalar FogSequentialForward.fog[20].server[0] droppedJobsTimout 0
scalar FogSequentialForward.fog[20].server[0] droppedJobsSLA 9174
scalar FogSequentialForward.fog[20].server[0] droppedJobsTotal 9952
scalar FogSequentialForward.fog[21].dispatcher localJobs 14840
scalar FogSequentialForward.fog[21].dispatcher internalJobs 16279
scalar FogSequentialForward.fog[21].dispatcher externalJobs 6010490
scalar FogSequentialForward.fog[21].dispatcher remoteJobs 6010605
scalar FogSequentialForward.fog[21].dispatcher probeQueries 0
scalar FogSequentialForward.fog[21].dispatcher probeAnswers 0
scalar FogSequentialForward.fog[21].dispatcher droppedJobsSLA 1324
scalar FogSequentialForward.fog[21].dispatcher jobs_class_1 6026769
scalar FogSequentialForward.fog[21].dispatcher remoteJobs_class_1 6010605
scalar FogSequentialForward.fog[21].dispatcher localJobs_class_1 14840
scalar FogSequentialForward.fog[21].dispatcher droppedJobsSLA_class_1 1324
scalar FogSequentialForward.fog[21].server[0] rho 0.9999965429306
scalar FogSequentialForward.fog[21].server[0] congestionRatio 0
scalar FogSequentialForward.fog[21].server[0] totalJobs 14840
scalar FogSequentialForward.fog[21].server[0] droppedJobsQueue 780
scalar FogSequentialForward.fog[21].server[0] droppedJobsTimout 0
scalar FogSequentialForward.fog[21].server[0] droppedJobsSLA 9188
scalar FogSequentialForward.fog[21].server[0] droppedJobsTotal 9968
scalar FogSequentialForward.fog[22].dispatcher localJobs 14848
scalar FogSequentialForward.fog[22].dispatcher internalJobs 16285
scalar FogSequentialForward.fog[22].dispatcher externalJobs 6012754
scalar FogSequentialForward.fog[22].dispatcher remoteJobs 6012749
scalar FogSequentialForward.fog[22].dispatcher probeQueries 0
scalar FogSequentialForward.fog[22].dispatcher probeAnswers 0
scalar FogSequentialForward.fog[22].dispatcher droppedJobsSLA 1442
scalar FogSequentialForward.fog[22].dispatcher jobs_class_1 6029039
scalar FogSequentialForward.fog[22].dispatcher remoteJobs_class_1 6012749
scalar FogSequentialForward.fog[22].dispatcher localJobs_class_1 14848
scalar FogSequentialForward.fog[22].dispatcher droppedJobsSLA_class_1 1442
scalar FogSequentialForward.fog[22].server[0] rho 0.99999725818634
scalar FogSequentialForward.fog[22].server[0] congestionRatio 0
scalar FogSequentialForward.fog[22].server[0] totalJobs 14848
scalar FogSequentialForward.fog[22].server[0] droppedJobsQueue 779
scalar FogSequentialForward.fog[22].server[0] droppedJobsTimout 0
scalar FogSequentialForward.fog[22].server[0] droppedJobsSLA 9129
scalar FogSequentialForward.fog[22].server[0] droppedJobsTotal 9908
scalar FogSequentialForward.fog[23].dispatcher localJobs 14827
scalar FogSequentialForward.fog[23].dispatcher internalJobs 16350
scalar FogSequentialForward.fog[23].dispatcher externalJobs 6007419
scalar FogSequentialForward.fog[23].dispatcher remoteJobs 6007551
scalar FogSequentialForward.fog[23].dispatcher probeQueries 0
scalar FogSequentialForward.fog[23].dispatcher probeAnswers 0
scalar FogSequentialForward.fog[23].dispatcher droppedJobsSLA 1391
scalar FogSequentialForward.fog[23].dispatcher jobs_class_1 6023769
scalar FogSequentialForward.fog[23].dispatcher remoteJobs_class_1 6007551
scalar FogSequentialForward.fog[23].dispatcher localJobs_class_1 14827
scalar FogSequentialForward.fog[23].dispatcher droppedJobsSLA_class_1 1391
scalar FogSequentialForward.fog[23].server[0] rho 0.99999463558197
scalar FogSequentialForward.fog[23].server[0] congestionRatio 0
scalar FogSequentialForward.fog[23].server[0] totalJobs 14827
scalar FogSequentialForward.fog[23].server[0] droppedJobsQueue 775
scalar FogSequentialForward.fog[23].server[0] droppedJobsTimout 0
scalar FogSequentialForward.fog[23].server[0] droppedJobsSLA 9127
scalar FogSequentialForward.fog[23].server[0] droppedJobsTotal 9902
scalar FogSequentialForward.fog[24].dispatcher localJobs 14808
scalar FogSequentialForward.fog[24].dispatcher internalJobs 16175
scalar FogSequentialForward.fog[24].dispatcher externalJobs 6008412
scalar FogSequentialForward.fog[24].dispatcher remoteJobs 6008447
scalar FogSequentialForward.fog[24].dispatcher probeQueries 0
scalar FogSequentialForward.fog[24].dispatcher probeAnswers 0
scalar FogSequentialForward.fog[24].dispatcher droppedJobsSLA 1332
scalar FogSequentialForward.fog[24].dispatcher jobs_class_1 6024587
scalar FogSequentialForward.fog[24].dispatcher remoteJobs_class_1 6008447
scalar FogSequentialForward.fog[24].dispatcher localJobs_class_1 14808
scalar FogSequentialForward.fog[24].dispatcher droppedJobsSLA_class_1 1332
scalar FogSequentialForward.fog[24].server[0] rho 0.99999552965164
scalar FogSequentialForward.fog[24].server[0] congestionRatio 0
scalar FogSequentialForward.fog[24].server[0] totalJobs 14808
scalar FogSequentialForward.fog[24].server[0] droppedJobsQueue 775
scalar FogSequentialForward.fog[24].server[0] droppedJobsTimout 0
scalar FogSequentialForward.fog[24].server[0] droppedJobsSLA 9138
scalar FogSequentialForward.fog[24].server[0] droppedJobsTotal 9913
scalar FogSequentialForward.fog[25].dispatcher localJobs 14894
scalar FogSequentialForward.fog[25].dispatcher internalJobs 16221
scalar FogSequentialForward.fog[25].dispatcher externalJobs 6011514
scalar FogSequentialForward.fog[25].dispatcher remoteJobs 6011452
scalar FogSequentialForward.fog[25].dispatcher probeQueries 0
scalar FogSequentialForward.fog[25].dispatcher probeAnswers 0
scalar FogSequentialForward.fog[25].dispatcher droppedJobsSLA 1389
scalar FogSequentialForward.fog[25].dispatcher jobs_class_1 6027735
scalar FogSequentialForward.fog[25].dispatcher remoteJobs_class_1 6011452
scalar FogSequentialForward.fog[25].dispatcher localJobs_class_1 14894
scalar FogSequentialForward.fog[25].dispatcher droppedJobsSLA_class_1 1389
scalar FogSequentialForward.fog[25].server[0] rho 0.99999886751175
scalar FogSequentialForward.fog[25].server[0] congestionRatio 0
scalar FogSequentialForward.fog[25].server[0] totalJobs 14894
scalar FogSequentialForward.fog[25].server[0] droppedJobsQueue 782
scalar FogSequentialForward.fog[25].server[0] droppedJobsTimout 0
scalar FogSequentialForward.fog[25].server[0] droppedJobsSLA 9208
scalar FogSequentialForward.fog[25].server[0] droppedJobsTotal 9990
scalar FogSequentialForward.fog[26].dispatcher localJobs 14759
scalar FogSequentialForward.fog[26].dispatcher internalJobs 16271
scalar FogSequentialForward.fog[26].dispatcher externalJobs 6010769
scalar FogSequentialForward.fog[26].dispatcher remoteJobs 6010854
scalar FogSequentialForward.fog[26].dispatcher probeQueries 0
scalar FogSequentialForward.fog[26].dispatcher probeAnswers 0
scalar FogSequentialForward.fog[26].dispatcher droppedJobsSLA 1427
scalar FogSequentialForward.fog[26].dispatcher jobs_class_1 6027040
scalar FogSequentialForward.fog[26].dispatcher remoteJobs_class_1 6010854
scalar FogSequentialForward.fog[26].dispatcher localJobs_class_1 14759
scalar FogSequentialForward.fog[26].dispatcher droppedJobsSLA_class_1 1427
scalar FogSequentialForward.fog[26].server[0] rho 0.99999439716339
scalar FogSequentialForward.fog[26].server[0] congestionRatio 0
scalar FogSequentialForward.fog[26].server[0] totalJobs 14759
scalar FogSequentialForward.fog[26].server[0] droppedJobsQueue 776
scalar FogSequentialForward.fog[26].server[0] droppedJobsTimout 0
scalar FogSequentialForward.fog[26].server[0] droppedJobsSLA 9088
scalar FogSequentialForward.fog[26].server[0] droppedJobsTotal 9864
scalar FogSequentialForward.fog[27].dispatcher localJobs 14845
scalar FogSequentialForward.fog[27].dispatcher internalJobs 16391
scalar FogSequentialForward.fog[27].dispatcher externalJobs 6007862
scalar FogSequentialForward.fog[27].dispatcher remoteJobs 6008010
scalar FogSequentialForward.fog[27].dispatcher probeQueries 0
scalar FogSequentialForward.fog[27].dispatcher probeAnswers 0
scalar FogSequentialForward.fog[27].dispatcher droppedJobsSLA 1398
scalar FogSequentialForward.fog[27].dispatcher jobs_class_1 6024253
scalar FogSequentialForward.fog[27].dispatcher remoteJobs_class_1 6008010
scalar FogSequentialForward.fog[27].dispatcher localJobs_class_1 14845
scalar FogSequentialForward.fog[27].dispatcher droppedJobsSLA_class_1 1398
scalar FogSequentialForward.fog[27].server[0] rho 0.99999684095383
scalar FogSequentialForward.fog[27].server[0] congestionRatio 0
scalar FogSequentialForward.fog[27].server[0] totalJobs 14845
scalar FogSequentialForward.fog[27].server[0] droppedJobsQueue 782
scalar FogSequentialForward.fog[27].server[0] droppedJobsTimout 0
scalar FogSequentialForward.fog[27].server[0] droppedJobsSLA 9187
scalar FogSequentialForward.fog[27].server[0] droppedJobsTotal 9969
scalar FogSequentialForward.fog[28].dispatcher localJobs 14765
scalar FogSequentialForward.fog[28].dispatcher internalJobs 16444
scalar FogSequentialForward.fog[28].dispatcher externalJobs 6010512
scalar FogSequentialForward.fog[28].dispatcher remoteJobs 6010830
scalar FogSequentialForward.fog[28].dispatcher probeQueries 0
scalar FogSequentialForward.fog[28].dispatcher probeAnswers 0
scalar FogSequentialForward.fog[28].dispatcher droppedJobsSLA 1361
scalar FogSequentialForward.fog[28].dispatcher jobs_class_1 6026956
scalar FogSequentialForward.fog[28].dispatcher remoteJobs_class_1 6010830
scalar FogSequentialForward.fog[28].dispatcher localJobs_class_1 14765
scalar FogSequentialForward.fog[28].dispatcher droppedJobsSLA_class_1 1361
scalar FogSequentialForward.fog[28].server[0] rho 0.99999338388443
scalar FogSequentialForward.fog[28].server[0] congestionRatio 0
scalar FogSequentialForward.fog[28].server[0] totalJobs 14765
scalar FogSequentialForward.fog[28].server[0] droppedJobsQueue 774
scalar FogSequentialForward.fog[28].server[0] droppedJobsTimout 0
scalar FogSequentialForward.fog[28].server[0] droppedJobsSLA 9092
scalar FogSequentialForward.fog[28].server[0] droppedJobsTotal 9866
scalar FogSequentialForward.fog[29].dispatcher localJobs 14812
scalar FogSequentialForward.fog[29].dispatcher internalJobs 15969
scalar FogSequentialForward.fog[29].dispatcher externalJobs 6013409
scalar FogSequentialForward.fog[29].dispatcher remoteJobs 6013196
scalar FogSequentialForward.fog[29].dispatcher probeQueries 0
scalar FogSequentialForward.fog[29].dispatcher probeAnswers 0
scalar FogSequentialForward.fog[29].dispatcher droppedJobsSLA 1370
scalar FogSequentialForward.fog[29].dispatcher jobs_class_1 6029378
scalar FogSequentialForward.fog[29].dispatcher remoteJobs_class_1 6013196
scalar FogSequentialForward.fog[29].dispatcher localJobs_class_1 14812
scalar FogSequentialForward.fog[29].dispatcher droppedJobsSLA_class_1 1370
scalar FogSequentialForward.fog[29].server[0] rho 0.99999386072159
scalar FogSequentialForward.fog[29].server[0] congestionRatio 0
scalar FogSequentialForward.fog[29].server[0] totalJobs 14812
scalar FogSequentialForward.fog[29].server[0] droppedJobsQueue 775
scalar FogSequentialForward.fog[29].server[0] droppedJobsTimout 0
scalar FogSequentialForward.fog[29].server[0] droppedJobsSLA 9144
scalar FogSequentialForward.fog[29].server[0] droppedJobsTotal 9919
scalar FogSequentialForward.fog[30].dispatcher localJobs 14819
scalar FogSequentialForward.fog[30].dispatcher internalJobs 16039
scalar FogSequentialForward.fog[30].dispatcher externalJobs 6014066
scalar FogSequentialForward.fog[30].dispatcher remoteJobs 6013921
scalar FogSequentialForward.fog[30].dispatcher probeQueries 0
scalar FogSequentialForward.fog[30].dispatcher probeAnswers 0
scalar FogSequentialForward.fog[30].dispatcher droppedJobsSLA 1365
scalar FogSequentialForward.fog[30].dispatcher jobs_class_1 6030105
scalar FogSequentialForward.fog[30].dispatcher remoteJobs_class_1 6013921
scalar FogSequentialForward.fog[30].dispatcher localJobs_class_1 14819
scalar FogSequentialForward.fog[30].dispatcher droppedJobsSLA_class_1 1365
scalar FogSequentialForward.fog[30].server[0] rho 0.99999785423279
scalar FogSequentialForward.fog[30].server[0] congestionRatio 0
scalar FogSequentialForward.fog[30].server[0] totalJobs 14819
scalar FogSequentialForward.fog[30].server[0] droppedJobsQueue 778
scalar FogSequentialForward.fog[30].server[0] droppedJobsTimout 0
scalar FogSequentialForward.fog[30].server[0] droppedJobsSLA 9095
scalar FogSequentialForward.fog[30].server[0] droppedJobsTotal 9873
scalar FogSequentialForward.fog[31].dispatcher localJobs 14839
scalar FogSequentialForward.fog[31].dispatcher internalJobs 16407
scalar FogSequentialForward.fog[31].dispatcher externalJobs 6011250
scalar FogSequentialForward.fog[31].dispatcher remoteJobs 6011440
scalar FogSequentialForward.fog[31].dispatcher probeQueries 0
scalar FogSequentialForward.fog[31].dispatcher probeAnswers 0
scalar FogSequentialForward.fog[31].dispatcher droppedJobsSLA 1378
scalar FogSequentialForward.fog[31].dispatcher jobs_class_1 6027657
scalar FogSequentialForward.fog[31].dispatcher remoteJobs_class_1 6011440
scalar FogSequentialForward.fog[31].dispatcher localJobs_class_1 14839
scalar FogSequentialForward.fog[31].dispatcher droppedJobsSLA_class_1 1378
scalar FogSequentialForward.fog[31].server[0] rho 0.99999755620956
scalar FogSequentialForward.fog[31].server[0] congestionRatio 0
scalar FogSequentialForward.fog[31].server[0] totalJobs 14839
scalar FogSequentialForward.fog[31].server[0] droppedJobsQueue 779
scalar FogSequentialForward.fog[31].server[0] droppedJobsTimout 0
scalar FogSequentialForward.fog[31].server[0] droppedJobsSLA 9169
scalar FogSequentialForward.fog[31].server[0] droppedJobsTotal 9948
scalar FogSequentialForward.fog[32].dispatcher localJobs 14812
scalar FogSequentialForward.fog[32].dispatcher internalJobs 16125
scalar FogSequentialForward.fog[32].dispatcher externalJobs 6017368
scalar FogSequentialForward.fog[32].dispatcher remoteJobs 6017366
scalar FogSequentialForward.fog[32].dispatcher probeQueries 0
scalar FogSequentialForward.fog[32].dispatcher probeAnswers 0
scalar FogSequentialForward.fog[32].dispatcher droppedJobsSLA 1315
scalar FogSequentialForward.fog[32].dispatcher jobs_class_1 6033493
scalar FogSequentialForward.fog[32].dispatcher remoteJobs_class_1 6017366
scalar FogSequentialForward.fog[32].dispatcher localJobs_class_1 14812
scalar FogSequentialForward.fog[32].dispatcher droppedJobsSLA_class_1 1315
scalar FogSequentialForward.fog[32].server[0] rho 0.99999535083771
scalar FogSequentialForward.fog[32].server[0] congestionRatio 0
scalar FogSequentialForward.fog[32].server[0] totalJobs 14812
scalar FogSequentialForward.fog[32].server[0] droppedJobsQueue 776
scalar FogSequentialForward.fog[32].server[0] droppedJobsTimout 0
scalar FogSequentialForward.fog[32].server[0] droppedJobsSLA 9144
scalar FogSequentialForward.fog[32].server[0] droppedJobsTotal 9920
scalar FogSequentialForward.fog[33].dispatcher localJobs 14833
scalar FogSequentialForward.fog[33].dispatcher internalJobs 16086
scalar FogSequentialForward.fog[33].dispatcher externalJobs 6010331
scalar FogSequentialForward.fog[33].dispatcher remoteJobs 6010270
scalar FogSequentialForward.fog[33].dispatcher probeQueries 0
scalar FogSequentialForward.fog[33].dispatcher probeAnswers 0
scalar FogSequentialForward.fog[33].dispatcher droppedJobsSLA 1314
scalar FogSequentialForward.fog[33].dispatcher jobs_class_1 6026417
scalar FogSequentialForward.fog[33].dispatcher remoteJobs_class_1 6010270
scalar FogSequentialForward.fog[33].dispatcher localJobs_class_1 14833
scalar FogSequentialForward.fog[33].dispatcher droppedJobsSLA_class_1 1314
scalar FogSequentialForward.fog[33].server[0] rho 0.99999624490738
scalar FogSequentialForward.fog[33].server[0] congestionRatio 0
scalar FogSequentialForward.fog[33].server[0] totalJobs 14833
scalar FogSequentialForward.fog[33].server[0] droppedJobsQueue 781
scalar FogSequentialForward.fog[33].server[0] droppedJobsTimout 0
scalar FogSequentialForward.fog[33].server[0] droppedJobsSLA 9191
scalar FogSequentialForward.fog[33].server[0] droppedJobsTotal 9972
scalar FogSequentialForward.fog[34].dispatcher localJobs 14798
scalar FogSequentialForward.fog[34].dispatcher internalJobs 16324
scalar FogSequentialForward.fog[34].dispatcher externalJobs 6009824
scalar FogSequentialForward.fog[34].dispatcher remoteJobs 6009972
scalar FogSequentialForward.fog[34].dispatcher probeQueries 0
scalar FogSequentialForward.fog[34].dispatcher probeAnswers 0
scalar FogSequentialForward.fog[34].dispatcher droppedJobsSLA 1378
scalar FogSequentialForward.fog[34].dispatcher jobs_class_1 6026148
scalar FogSequentialForward.fog[34].dispatcher remoteJobs_class_1 6009972
scalar FogSequentialForward.fog[34].dispatcher localJobs_class_1 14798
scalar FogSequentialForward.fog[34].dispatcher droppedJobsSLA_class_1 1378
scalar FogSequentialForward.fog[34].server[0] rho 0.99999737739563
scalar FogSequentialForward.fog[34].server[0] congestionRatio 0
scalar FogSequentialForward.fog[34].server[0] totalJobs 14798
scalar FogSequentialForward.fog[34].server[0] droppedJobsQueue 776
scalar FogSequentialForward.fog[34].server[0] droppedJobsTimout 0
scalar FogSequentialForward.fog[34].server[0] droppedJobsSLA 9140
scalar FogSequentialForward.fog[34].server[0] droppedJobsTotal 9916
scalar FogSequentialForward.fog[35].dispatcher localJobs 14834
scalar FogSequentialForward.fog[35].dispatcher internalJobs 16098
scalar FogSequentialForward.fog[35].dispatcher externalJobs 6012775
scalar FogSequentialForward.fog[35].dispatcher remoteJobs 6012644
scalar FogSequentialForward.fog[35].dispatcher probeQueries 0
scalar FogSequentialForward.fog[35].dispatcher probeAnswers 0
scalar FogSequentialForward.fog[35].dispatcher droppedJobsSLA 1395
scalar FogSequentialForward.fog[35].dispatcher jobs_class_1 6028873
scalar FogSequentialForward.fog[35].dispatcher remoteJobs_class_1 6012644
scalar FogSequentialForward.fog[35].dispatcher localJobs_class_1 14834
scalar FogSequentialForward.fog[35].dispatcher droppedJobsSLA_class_1 1395
scalar FogSequentialForward.fog[35].server[0] rho 0.99999576807022
scalar FogSequentialForward.fog[35].server[0] congestionRatio 0
scalar FogSequentialForward.fog[35].server[0] totalJobs 14834
scalar FogSequentialForward.fog[35].server[0] droppedJobsQueue 778
scalar FogSequentialForward.fog[35].server[0] droppedJobsTimout 0
scalar FogSequentialForward.fog[35].server[0] droppedJobsSLA 9123
scalar FogSequentialForward.fog[35].server[0] droppedJobsTotal 9901
scalar FogSequentialForward.fog[36].dispatcher localJobs 14840
scalar FogSequentialForward.fog[36].dispatcher internalJobs 16175
scalar FogSequentialForward.fog[36].dispatcher externalJobs 6010276
scalar FogSequentialForward.fog[36].dispatcher remoteJobs 6010238
scalar FogSequentialForward.fog[36].dispatcher probeQueries 0
scalar FogSequentialForward.fog[36].dispatcher probeAnswers 0
scalar FogSequentialForward.fog[36].dispatcher droppedJobsSLA 1373
scalar FogSequentialForward.fog[36].dispatcher jobs_class_1 6026451
scalar FogSequentialForward.fog[36].dispatcher remoteJobs_class_1 6010238
scalar FogSequentialForward.fog[36].dispatcher localJobs_class_1 14840
scalar FogSequentialForward.fog[36].dispatcher droppedJobsSLA_class_1 1373
scalar FogSequentialForward.fog[36].server[0] rho 0.99999558925629
scalar FogSequentialForward.fog[36].server[0] congestionRatio 0
scalar FogSequentialForward.fog[36].server[0] totalJobs 14840
scalar FogSequentialForward.fog[36].server[0] droppedJobsQueue 775
scalar FogSequentialForward.fog[36].server[0] droppedJobsTimout 0
scalar FogSequentialForward.fog[36].server[0] droppedJobsSLA 9149
scalar FogSequentialForward.fog[36].server[0] droppedJobsTotal 9924
scalar FogSequentialForward.fog[37].dispatcher localJobs 14828
scalar FogSequentialForward.fog[37].dispatcher internalJobs 16193
scalar FogSequentialForward.fog[37].dispatcher externalJobs 6010804
scalar FogSequentialForward.fog[37].dispatcher remoteJobs 6010818
scalar FogSequentialForward.fog[37].dispatcher probeQueries 0
scalar FogSequentialForward.fog[37].dispatcher probeAnswers 0
scalar FogSequentialForward.fog[37].dispatcher droppedJobsSLA 1351
scalar FogSequentialForward.fog[37].dispatcher jobs_class_1 6026997
scalar FogSequentialForward.fog[37].dispatcher remoteJobs_class_1 6010818
scalar FogSequentialForward.fog[37].dispatcher localJobs_class_1 14828
scalar FogSequentialForward.fog[37].dispatcher droppedJobsSLA_class_1 1351
scalar FogSequentialForward.fog[37].server[0] rho 0.9999937415123
scalar FogSequentialForward.fog[37].server[0] congestionRatio 0
scalar FogSequentialForward.fog[37].server[0] totalJobs 14828
scalar FogSequentialForward.fog[37].server[0] droppedJobsQueue 774
scalar FogSequentialForward.fog[37].server[0] droppedJobsTimout 0
scalar FogSequentialForward.fog[37].server[0] droppedJobsSLA 9194
scalar FogSequentialForward.fog[37].server[0] droppedJobsTotal 9968
scalar FogSequentialForward.fog[38].dispatcher localJobs 14823
scalar FogSequentialForward.fog[38].dispatcher internalJobs 16340
scalar FogSequentialForward.fog[38].dispatcher externalJobs 6010187
scalar FogSequentialForward.fog[38].dispatcher remoteJobs 6010273
scalar FogSequentialForward.fog[38].dispatcher probeQueries 0
scalar FogSequentialForward.fog[38].dispatcher probeAnswers 0
scalar FogSequentialForward.fog[38].dispatcher droppedJobsSLA 1431
scalar FogSequentialForward.fog[38].dispatcher jobs_class_1 6026527
scalar FogSequentialForward.fog[38].dispatcher remoteJobs_class_1 6010273
scalar FogSequentialForward.fog[38].dispatcher localJobs_class_1 14823
scalar FogSequentialForward.fog[38].dispatcher droppedJobsSLA_class_1 1431
scalar FogSequentialForward.fog[38].server[0] rho 0.99999517202377
scalar FogSequentialForward.fog[38].server[0] congestionRatio 0
scalar FogSequentialForward.fog[38].server[0] totalJobs 14823
scalar FogSequentialForward.fog[38].server[0] droppedJobsQueue 777
scalar FogSequentialForward.fog[38].server[0] droppedJobsTimout 0
scalar FogSequentialForward.fog[38].server[0] droppedJobsSLA 9124
scalar FogSequentialForward.fog[38].server[0] droppedJobsTotal 9901
scalar FogSequentialForward.fog[39].dispatcher localJobs 14730
scalar FogSequentialForward.fog[39].dispatcher internalJobs 16132
scalar FogSequentialForward.fog[39].dispatcher externalJobs 6012673
scalar FogSequentialForward.fog[39].dispatcher remoteJobs 6012679
scalar FogSequentialForward.fog[39].dispatcher probeQueries 0
scalar FogSequentialForward.fog[39].dispatcher probeAnswers 0
scalar FogSequentialForward.fog[39].dispatcher droppedJobsSLA 1396
scalar FogSequentialForward.fog[39].dispatcher jobs_class_1 6028805
scalar FogSequentialForward.fog[39].dispatcher remoteJobs_class_1 6012679
scalar FogSequentialForward.fog[39].dispatcher localJobs_class_1 14730
scalar FogSequentialForward.fog[39].dispatcher droppedJobsSLA_class_1 1396
scalar FogSequentialForward.fog[39].server[0] rho 0.99999660253525
scalar FogSequentialForward.fog[39].server[0] congestionRatio 0
scalar FogSequentialForward.fog[39].server[0] totalJobs 14730
scalar FogSequentialForward.fog[39].server[0] droppedJobsQueue 774
scalar FogSequentialForward.fog[39].server[0] droppedJobsTimout 0
scalar FogSequentialForward.fog[39].server[0] droppedJobsSLA 9061
scalar FogSequentialForward.fog[39].server[0] droppedJobsTotal 9835
scalar FogSequentialForward.fog[40].dispatcher localJobs 14849
scalar FogSequentialForward.fog[40].dispatcher internalJobs 16236
scalar FogSequentialForward.fog[40].dispatcher externalJobs 6010723
scalar FogSequentialForward.fog[40].dispatcher remoteJobs 6010722
scalar FogSequentialForward.fog[40].dispatcher probeQueries 0
scalar FogSequentialForward.fog[40].dispatcher probeAnswers 0
scalar FogSequentialForward.fog[40].dispatcher droppedJobsSLA 1388
scalar FogSequentialForward.fog[40].dispatcher jobs_class_1 6026959
scalar FogSequentialForward.fog[40].dispatcher remoteJobs_class_1 6010722
scalar FogSequentialForward.fog[40].dispatcher localJobs_class_1 14849
scalar FogSequentialForward.fog[40].dispatcher droppedJobsSLA_class_1 1388
scalar FogSequentialForward.fog[40].server[0] rho 0.99999636411667
scalar FogSequentialForward.fog[40].server[0] congestionRatio 0
scalar FogSequentialForward.fog[40].server[0] totalJobs 14849
scalar FogSequentialForward.fog[40].server[0] droppedJobsQueue 775
scalar FogSequentialForward.fog[40].server[0] droppedJobsTimout 0
scalar FogSequentialForward.fog[40].server[0] droppedJobsSLA 9175
scalar FogSequentialForward.fog[40].server[0] droppedJobsTotal 9950
scalar FogSequentialForward.fog[41].dispatcher localJobs 14863
scalar FogSequentialForward.fog[41].dispatcher internalJobs 16389
scalar FogSequentialForward.fog[41].dispatcher externalJobs 6012483
scalar FogSequentialForward.fog[41].dispatcher remoteJobs 6012651
scalar FogSequentialForward.fog[41].dispatcher probeQueries 0
scalar FogSequentialForward.fog[41].dispatcher probeAnswers 0
scalar FogSequentialForward.fog[41].dispatcher droppedJobsSLA 1358
scalar FogSequentialForward.fog[41].dispatcher jobs_class_1 6028872
scalar FogSequentialForward.fog[41].dispatcher remoteJobs_class_1 6012651
scalar FogSequentialForward.fog[41].dispatcher localJobs_class_1 14863
scalar FogSequentialForward.fog[41].dispatcher droppedJobsSLA_class_1 1358
scalar FogSequentialForward.fog[41].server[0] rho 0.99999660253525
scalar FogSequentialForward.fog[41].server[0] congestionRatio 0
scalar FogSequentialForward.fog[41].server[0] totalJobs 14863
scalar FogSequentialForward.fog[41].server[0] droppedJobsQueue 780
scalar FogSequentialForward.fog[41].server[0] droppedJobsTimout 0
scalar FogSequentialForward.fog[41].server[0] droppedJobsSLA 9142
scalar FogSequentialForward.fog[41].server[0] droppedJobsTotal 9922
scalar FogSequentialForward.fog[42].dispatcher localJobs 14829
scalar FogSequentialForward.fog[42].dispatcher internalJobs 16200
scalar FogSequentialForward.fog[42].dispatcher externalJobs 6012266
scalar FogSequentialForward.fog[42].dispatcher remoteJobs 6012205
scalar FogSequentialForward.fog[42].dispatcher probeQueries 0
scalar FogSequentialForward.fog[42].dispatcher probeAnswers 0
scalar FogSequentialForward.fog[42].dispatcher droppedJobsSLA 1432
scalar FogSequentialForward.fog[42].dispatcher jobs_class_1 6028466
scalar FogSequentialForward.fog[42].dispatcher remoteJobs_class_1 6012205
scalar FogSequentialForward.fog[42].dispatcher localJobs_class_1 14829
scalar FogSequentialForward.fog[42].dispatcher droppedJobsSLA_class_1 1432
scalar FogSequentialForward.fog[42].server[0] rho 0.99999511241913
scalar FogSequentialForward.fog[42].server[0] congestionRatio 0
scalar FogSequentialForward.fog[42].server[0] totalJobs 14829
scalar FogSequentialForward.fog[42].server[0] droppedJobsQueue 778
scalar FogSequentialForward.fog[42].server[0] droppedJobsTimout 0
scalar FogSequentialForward.fog[42].server[0] droppedJobsSLA 9144
scalar FogSequentialForward.fog[42].server[0] droppedJobsTotal 9922
scalar FogSequentialForward.fog[43].dispatcher localJobs 14842
scalar FogSequentialForward.fog[43].dispatcher internalJobs 16108
scalar FogSequentialForward.fog[43].dispatcher externalJobs 6012692
scalar FogSequentialForward.fog[43].dispatcher remoteJobs 6012599
scalar FogSequentialForward.fog[43].dispatcher probeQueries 0
scalar FogSequentialForward.fog[43].dispatcher probeAnswers 0
scalar FogSequentialForward.fog[43].dispatcher droppedJobsSLA 1359
scalar FogSequentialForward.fog[43].dispatcher jobs_class_1 6028800
scalar FogSequentialForward.fog[43].dispatcher remoteJobs_class_1 6012599
scalar FogSequentialForward.fog[43].dispatcher localJobs_class_1 14842
scalar FogSequentialForward.fog[43].dispatcher droppedJobsSLA_class_1 1359
scalar FogSequentialForward.fog[43].server[0] rho 0.99999624490738
scalar FogSequentialForward.fog[43].server[0] congestionRatio 0
scalar FogSequentialForward.fog[43].server[0] totalJobs 14842
scalar FogSequentialForward.fog[43].server[0] droppedJobsQueue 777
scalar FogSequentialForward.fog[43].server[0] droppedJobsTimout 0
scalar FogSequentialForward.fog[43].server[0] droppedJobsSLA 9152
scalar FogSequentialForward.fog[43].server[0] droppedJobsTotal 9929
scalar FogSequentialForward.fog[44].dispatcher localJobs 14802
scalar FogSequentialForward.fog[44].dispatcher internalJobs 16517
scalar FogSequentialForward.fog[44].dispatcher externalJobs 6014320
scalar FogSequentialForward.fog[44].dispatcher remoteJobs 6014684
scalar FogSequentialForward.fog[44].dispatcher probeQueries 0
scalar FogSequentialForward.fog[44].dispatcher probeAnswers 0
scalar FogSequentialForward.fog[44].dispatcher droppedJobsSLA 1351
scalar FogSequentialForward.fog[44].dispatcher jobs_class_1 6030837
scalar FogSequentialForward.fog[44].dispatcher remoteJobs_class_1 6014684
scalar FogSequentialForward.fog[44].dispatcher localJobs_class_1 14802
scalar FogSequentialForward.fog[44].dispatcher droppedJobsSLA_class_1 1351
scalar FogSequentialForward.fog[44].server[0] rho 0.99999678134918
scalar FogSequentialForward.fog[44].server[0] congestionRatio 0
scalar FogSequentialForward.fog[44].server[0] totalJobs 14802
scalar FogSequentialForward.fog[44].server[0] droppedJobsQueue 776
scalar FogSequentialForward.fog[44].server[0] droppedJobsTimout 0
scalar FogSequentialForward.fog[44].server[0] droppedJobsSLA 9165
scalar FogSequentialForward.fog[44].server[0] droppedJobsTotal 9941
scalar FogSequentialForward.fog[45].dispatcher localJobs 14887
scalar FogSequentialForward.fog[45].dispatcher internalJobs 16182
scalar FogSequentialForward.fog[45].dispatcher externalJobs 6013184
scalar FogSequentialForward.fog[45].dispatcher remoteJobs 6013054
scalar FogSequentialForward.fog[45].dispatcher probeQueries 0
scalar FogSequentialForward.fog[45].dispatcher probeAnswers 0
scalar FogSequentialForward.fog[45].dispatcher droppedJobsSLA 1425
scalar FogSequentialForward.fog[45].dispatcher jobs_class_1 6029366
scalar FogSequentialForward.fog[45].dispatcher remoteJobs_class_1 6013054
scalar FogSequentialForward.fog[45].dispatcher localJobs_class_1 14887
scalar FogSequentialForward.fog[45].dispatcher droppedJobsSLA_class_1 1425
scalar FogSequentialForward.fog[45].server[0] rho 0.99999618530273
scalar FogSequentialForward.fog[45].server[0] congestionRatio 0
scalar FogSequentialForward.fog[45].server[0] totalJobs 14887
scalar FogSequentialForward.fog[45].server[0] droppedJobsQueue 785
scalar FogSequentialForward.fog[45].server[0] droppedJobsTimout 0
scalar FogSequentialForward.fog[45].server[0] droppedJobsSLA 9230
scalar FogSequentialForward.fog[45].server[0] droppedJobsTotal 10015
scalar FogSequentialForward.fog[46].dispatcher localJobs 14819
scalar FogSequentialForward.fog[46].dispatcher internalJobs 15961
scalar FogSequentialForward.fog[46].dispatcher externalJobs 6009450
scalar FogSequentialForward.fog[46].dispatcher remoteJobs 6009199
scalar FogSequentialForward.fog[46].dispatcher probeQueries 0
scalar FogSequentialForward.fog[46].dispatcher probeAnswers 0
scalar FogSequentialForward.fog[46].dispatcher droppedJobsSLA 1393
scalar FogSequentialForward.fog[46].dispatcher jobs_class_1 6025411
scalar FogSequentialForward.fog[46].dispatcher remoteJobs_class_1 6009199
scalar FogSequentialForward.fog[46].dispatcher localJobs_class_1 14819
scalar FogSequentialForward.fog[46].dispatcher droppedJobsSLA_class_1 1393
scalar FogSequentialForward.fog[46].server[0] rho 0.99999612569809
scalar FogSequentialForward.fog[46].server[0] congestionRatio 0
scalar FogSequentialForward.fog[46].server[0] totalJobs 14819
scalar FogSequentialForward.fog[46].server[0] droppedJobsQueue 776
scalar FogSequentialForward.fog[46].server[0] droppedJobsTimout 0
scalar FogSequentialForward.fog[46].server[0] droppedJobsSLA 9073
scalar FogSequentialForward.fog[46].server[0] droppedJobsTotal 9849
scalar FogSequentialForward.fog[47].dispatcher localJobs 14871
scalar FogSequentialForward.fog[47].dispatcher internalJobs 16405
scalar FogSequentialForward.fog[47].dispatcher externalJobs 6012886
scalar FogSequentialForward.fog[47].dispatcher remoteJobs 6013089
scalar FogSequentialForward.fog[47].dispatcher probeQueries 0
scalar FogSequentialForward.fog[47].dispatcher probeAnswers 0
scalar FogSequentialForward.fog[47].dispatcher droppedJobsSLA 1331
scalar FogSequentialForward.fog[47].dispatcher jobs_class_1 6029291
scalar FogSequentialForward.fog[47].dispatcher remoteJobs_class_1 6013089
scalar FogSequentialForward.fog[47].dispatcher localJobs_class_1 14871
scalar FogSequentialForward.fog[47].dispatcher droppedJobsSLA_class_1 1331
scalar FogSequentialForward.fog[47].server[0] rho 0.99999779462814
scalar FogSequentialForward.fog[47].server[0] congestionRatio 0
scalar FogSequentialForward.fog[47].server[0] totalJobs 14871
scalar FogSequentialForward.fog[47].server[0] droppedJobsQueue 781
scalar FogSequentialForward.fog[47].server[0] droppedJobsTimout 0
scalar FogSequentialForward.fog[47].server[0] droppedJobsSLA 9210
scalar FogSequentialForward.fog[47].server[0] droppedJobsTotal 9991
scalar FogSequentialForward.fog[48].dispatcher localJobs 14781
scalar FogSequentialForward.fog[48].dispatcher internalJobs 16391
scalar FogSequentialForward.fog[48].dispatcher externalJobs 6012176
scalar FogSequentialForward.fog[48].dispatcher remoteJobs 6012440
scalar FogSequentialForward.fog[48].dispatcher probeQueries 0
scalar FogSequentialForward.fog[48].dispatcher probeAnswers 0
scalar FogSequentialForward.fog[48].dispatcher droppedJobsSLA 1346
scalar FogSequentialForward.fog[48].dispatcher jobs_class_1 6028567
scalar FogSequentialForward.fog[48].dispatcher remoteJobs_class_1 6012440
scalar FogSequentialForward.fog[48].dispatcher localJobs_class_1 14781
scalar FogSequentialForward.fog[48].dispatcher droppedJobsSLA_class_1 1346
scalar FogSequentialForward.fog[48].server[0] rho 0.99999558925629
scalar FogSequentialForward.fog[48].server[0] congestionRatio 0
scalar FogSequentialForward.fog[48].server[0] totalJobs 14781
scalar FogSequentialForward.fog[48].server[0] droppedJobsQueue 776
scalar FogSequentialForward.fog[48].server[0] droppedJobsTimout 0
scalar FogSequentialForward.fog[48].server[0] droppedJobsSLA 9176
scalar FogSequentialForward.fog[48].server[0] droppedJobsTotal 9952
scalar FogSequentialForward.fog[49].dispatcher localJobs 14787
scalar FogSequentialForward.fog[49].dispatcher internalJobs 16297
scalar FogSequentialForward.fog[49].dispatcher externalJobs 6014998
scalar FogSequentialForward.fog[49].dispatcher remoteJobs 6015128
scalar FogSequentialForward.fog[49].dispatcher probeQueries 0
scalar FogSequentialForward.fog[49].dispatcher probeAnswers 0
scalar FogSequentialForward.fog[49].dispatcher droppedJobsSLA 1380
scalar FogSequentialForward.fog[49].dispatcher jobs_class_1 6031295
scalar FogSequentialForward.fog[49].dispatcher remoteJobs_class_1 6015128
scalar FogSequentialForward.fog[49].dispatcher localJobs_class_1 14787
scalar FogSequentialForward.fog[49].dispatcher droppedJobsSLA_class_1 1380
scalar FogSequentialForward.fog[49].server[0] rho 0.99999588727951
scalar FogSequentialForward.fog[49].server[0] congestionRatio 0
scalar FogSequentialForward.fog[49].server[0] totalJobs 14787
scalar FogSequentialForward.fog[49].server[0] droppedJobsQueue 778
scalar FogSequentialForward.fog[49].server[0] droppedJobsTimout 0
scalar FogSequentialForward.fog[49].server[0] droppedJobsSLA 9110
scalar FogSequentialForward.fog[49].server[0] droppedJobsTotal 9888
scalar FogSequentialForward.fog[50].dispatcher localJobs 14842
scalar FogSequentialForward.fog[50].dispatcher internalJobs 16215
scalar FogSequentialForward.fog[50].dispatcher externalJobs 6014702
scalar FogSequentialForward.fog[50].dispatcher remoteJobs 6014709
scalar FogSequentialForward.fog[50].dispatcher probeQueries 0
scalar FogSequentialForward.fog[50].dispatcher probeAnswers 0
scalar FogSequentialForward.fog[50].dispatcher droppedJobsSLA 1366
scalar FogSequentialForward.fog[50].dispatcher jobs_class_1 6030917
scalar FogSequentialForward.fog[50].dispatcher remoteJobs_class_1 6014709
scalar FogSequentialForward.fog[50].dispatcher localJobs_class_1 14842
scalar FogSequentialForward.fog[50].dispatcher droppedJobsSLA_class_1 1366
scalar FogSequentialForward.fog[50].server[0] rho 0.9999960064888
scalar FogSequentialForward.fog[50].server[0] congestionRatio 0
scalar FogSequentialForward.fog[50].server[0] totalJobs 14842
scalar FogSequentialForward.fog[50].server[0] droppedJobsQueue 781
scalar FogSequentialForward.fog[50].server[0] droppedJobsTimout 0
scalar FogSequentialForward.fog[50].server[0] droppedJobsSLA 9188
scalar FogSequentialForward.fog[50].server[0] droppedJobsTotal 9969
scalar FogSequentialForward.fog[51].dispatcher localJobs 14848
scalar FogSequentialForward.fog[51].dispatcher internalJobs 15923
scalar FogSequentialForward.fog[51].dispatcher externalJobs 6008421
scalar FogSequentialForward.fog[51].dispatcher remoteJobs 6008086
scalar FogSequentialForward.fog[51].dispatcher probeQueries 0
scalar FogSequentialForward.fog[51].dispatcher probeAnswers 0
scalar FogSequentialForward.fog[51].dispatcher droppedJobsSLA 1410
scalar FogSequentialForward.fog[51].dispatcher jobs_class_1 6024344
scalar FogSequentialForward.fog[51].dispatcher remoteJobs_class_1 6008086
scalar FogSequentialForward.fog[51].dispatcher localJobs_class_1 14848
scalar FogSequentialForward.fog[51].dispatcher droppedJobsSLA_class_1 1410
scalar FogSequentialForward.fog[51].server[0] rho 0.99999475479126
scalar FogSequentialForward.fog[51].server[0] congestionRatio 0
scalar FogSequentialForward.fog[51].server[0] totalJobs 14848
scalar FogSequentialForward.fog[51].server[0] droppedJobsQueue 779
scalar FogSequentialForward.fog[51].server[0] droppedJobsTimout 0
scalar FogSequentialForward.fog[51].server[0] droppedJobsSLA 9140
scalar FogSequentialForward.fog[51].server[0] droppedJobsTotal 9919
scalar FogSequentialForward.fog[52].dispatcher localJobs 14847
scalar FogSequentialForward.fog[52].dispatcher internalJobs 16125
scalar FogSequentialForward.fog[52].dispatcher externalJobs 6017588
scalar FogSequentialForward.fog[52].dispatcher remoteJobs 6017479
scalar FogSequentialForward.fog[52].dispatcher probeQueries 0
scalar FogSequentialForward.fog[52].dispatcher probeAnswers 0
scalar FogSequentialForward.fog[52].dispatcher droppedJobsSLA 1387
scalar FogSequentialForward.fog[52].dispatcher jobs_class_1 6033713
scalar FogSequentialForward.fog[52].dispatcher remoteJobs_class_1 6017479
scalar FogSequentialForward.fog[52].dispatcher localJobs_class_1 14847
scalar FogSequentialForward.fog[52].dispatcher droppedJobsSLA_class_1 1387
scalar FogSequentialForward.fog[52].server[0] rho 0.99999541044235
scalar FogSequentialForward.fog[52].server[0] congestionRatio 0
scalar FogSequentialForward.fog[52].server[0] totalJobs 14847
scalar FogSequentialForward.fog[52].server[0] droppedJobsQueue 779
scalar FogSequentialForward.fog[52].server[0] droppedJobsTimout 0
scalar FogSequentialForward.fog[52].server[0] droppedJobsSLA 9139
scalar FogSequentialForward.fog[52].server[0] droppedJobsTotal 9918
scalar FogSequentialForward.fog[53].dispatcher localJobs 14857
scalar FogSequentialForward.fog[53].dispatcher internalJobs 16372
scalar FogSequentialForward.fog[53].dispatcher externalJobs 6011200
scalar FogSequentialForward.fog[53].dispatcher remoteJobs 6011373
scalar FogSequentialForward.fog[53].dispatcher probeQueries 0
scalar FogSequentialForward.fog[53].dispatcher probeAnswers 0
scalar FogSequentialForward.fog[53].dispatcher droppedJobsSLA 1342
scalar FogSequentialForward.fog[53].dispatcher jobs_class_1 6027572
scalar FogSequentialForward.fog[53].dispatcher remoteJobs_class_1 6011373
scalar FogSequentialForward.fog[53].dispatcher localJobs_class_1 14857
scalar FogSequentialForward.fog[53].dispatcher droppedJobsSLA_class_1 1342
scalar FogSequentialForward.fog[53].server[0] rho 0.99999552965164
scalar FogSequentialForward.fog[53].server[0] congestionRatio 0
scalar FogSequentialForward.fog[53].server[0] totalJobs 14857
scalar FogSequentialForward.fog[53].server[0] droppedJobsQueue 779
scalar FogSequentialForward.fog[53].server[0] droppedJobsTimout 0
scalar FogSequentialForward.fog[53].server[0] droppedJobsSLA 9196
scalar FogSequentialForward.fog[53].server[0] droppedJobsTotal 9975
scalar FogSequentialForward.fog[54].dispatcher localJobs 14876
scalar FogSequentialForward.fog[54].dispatcher internalJobs 16083
scalar FogSequentialForward.fog[54].dispatcher externalJobs 6013083
scalar FogSequentialForward.fog[54].dispatcher remoteJobs 6012955
scalar FogSequentialForward.fog[54].dispatcher probeQueries 0
scalar FogSequentialForward.fog[54].dispatcher probeAnswers 0
scalar FogSequentialForward.fog[54].dispatcher droppedJobsSLA 1335
scalar FogSequentialForward.fog[54].dispatcher jobs_class_1 6029166
scalar FogSequentialForward.fog[54].dispatcher remoteJobs_class_1 6012955
scalar FogSequentialForward.fog[54].dispatcher localJobs_class_1 14876
scalar FogSequentialForward.fog[54].dispatcher droppedJobsSLA_class_1 1335
scalar FogSequentialForward.fog[54].server[0] rho 0.99999672174454
scalar FogSequentialForward.fog[54].server[0] congestionRatio 0
scalar FogSequentialForward.fog[54].server[0] totalJobs 14876
scalar FogSequentialForward.fog[54].server[0] droppedJobsQueue 782
scalar FogSequentialForward.fog[54].server[0] droppedJobsTimout 0
scalar FogSequentialForward.fog[54].server[0] droppedJobsSLA 9163
scalar FogSequentialForward.fog[54].server[0] droppedJobsTotal 9945
scalar FogSequentialForward.fog[55].dispatcher localJobs 14838
scalar FogSequentialForward.fog[55].dispatcher internalJobs 16197
scalar FogSequentialForward.fog[55].dispatcher externalJobs 6014903
scalar FogSequentialForward.fog[55].dispatcher remoteJobs 6014889
scalar FogSequentialForward.fog[55].dispatcher probeQueries 0
scalar FogSequentialForward.fog[55].dispatcher probeAnswers 0
scalar FogSequentialForward.fog[55].dispatcher droppedJobsSLA 1373
scalar FogSequentialForward.fog[55].dispatcher jobs_class_1 6031100
scalar FogSequentialForward.fog[55].dispatcher remoteJobs_class_1 6014889
scalar FogSequentialForward.fog[55].dispatcher localJobs_class_1 14838
scalar FogSequentialForward.fog[55].dispatcher droppedJobsSLA_class_1 1373
scalar FogSequentialForward.fog[55].server[0] rho 0.99999570846558
scalar FogSequentialForward.fog[55].server[0] congestionRatio 0
scalar FogSequentialForward.fog[55].server[0] totalJobs 14838
scalar FogSequentialForward.fog[55].server[0] droppedJobsQueue 778
scalar FogSequentialForward.fog[55].server[0] droppedJobsTimout 0
scalar FogSequentialForward.fog[55].server[0] droppedJobsSLA 9213
scalar FogSequentialForward.fog[55].server[0] droppedJobsTotal 9991
scalar FogSequentialForward.fog[56].dispatcher localJobs 14811
scalar FogSequentialForward.fog[56].dispatcher internalJobs 16201
scalar FogSequentialForward.fog[56].dispatcher externalJobs 6009584
scalar FogSequentialForward.fog[56].dispatcher remoteJobs 6009556
scalar FogSequentialForward.fog[56].dispatcher probeQueries 0
scalar FogSequentialForward.fog[56].dispatcher probeAnswers 0
scalar FogSequentialForward.fog[56].dispatcher droppedJobsSLA 1418
scalar FogSequentialForward.fog[56].dispatcher jobs_class_1 6025785
scalar FogSequentialForward.fog[56].dispatcher remoteJobs_class_1 6009556
scalar FogSequentialForward.fog[56].dispatcher localJobs_class_1 14811
scalar FogSequentialForward.fog[56].dispatcher droppedJobsSLA_class_1 1418
scalar FogSequentialForward.fog[56].server[0] rho 0.99999529123306
scalar FogSequentialForward.fog[56].server[0] congestionRatio 0
scalar FogSequentialForward.fog[56].server[0] totalJobs 14811
scalar FogSequentialForward.fog[56].server[0] droppedJobsQueue 778
scalar FogSequentialForward.fog[56].server[0] droppedJobsTimout 0
scalar FogSequentialForward.fog[56].server[0] droppedJobsSLA 9166
scalar FogSequentialForward.fog[56].server[0] droppedJobsTotal 9944
scalar FogSequentialForward.fog[57].dispatcher localJobs 14838
scalar FogSequentialForward.fog[57].dispatcher internalJobs 15978
scalar FogSequentialForward.fog[57].dispatcher externalJobs 6015863
scalar FogSequentialForward.fog[57].dispatcher remoteJobs 6015643
scalar FogSequentialForward.fog[57].dispatcher probeQueries 0
scalar FogSequentialForward.fog[57].dispatcher probeAnswers 0
scalar FogSequentialForward.fog[57].dispatcher droppedJobsSLA 1360
scalar FogSequentialForward.fog[57].dispatcher jobs_class_1 6031841
scalar FogSequentialForward.fog[57].dispatcher remoteJobs_class_1 6015643
scalar FogSequentialForward.fog[57].dispatcher localJobs_class_1 14838
scalar FogSequentialForward.fog[57].dispatcher droppedJobsSLA_class_1 1360
scalar FogSequentialForward.fog[57].server[0] rho 0.99999666213989
scalar FogSequentialForward.fog[57].server[0] congestionRatio 0
scalar FogSequentialForward.fog[57].server[0] totalJobs 14838
scalar FogSequentialForward.fog[57].server[0] droppedJobsQueue 783
scalar FogSequentialForward.fog[57].server[0] droppedJobsTimout 0
scalar FogSequentialForward.fog[57].server[0] droppedJobsSLA 9132
scalar FogSequentialForward.fog[57].server[0] droppedJobsTotal 9915
scalar FogSequentialForward.fog[58].dispatcher localJobs 14839
scalar FogSequentialForward.fog[58].dispatcher internalJobs 16201
scalar FogSequentialForward.fog[58].dispatcher externalJobs 6012937
scalar FogSequentialForward.fog[58].dispatcher remoteJobs 6012886
scalar FogSequentialForward.fog[58].dispatcher probeQueries 0
scalar FogSequentialForward.fog[58].dispatcher probeAnswers 0
scalar FogSequentialForward.fog[58].dispatcher droppedJobsSLA 1413
scalar FogSequentialForward.fog[58].dispatcher jobs_class_1 6029138
scalar FogSequentialForward.fog[58].dispatcher remoteJobs_class_1 6012886
scalar FogSequentialForward.fog[58].dispatcher localJobs_class_1 14839
scalar FogSequentialForward.fog[58].dispatcher droppedJobsSLA_class_1 1413
scalar FogSequentialForward.fog[58].server[0] rho 0.99998819828033
scalar FogSequentialForward.fog[58].server[0] congestionRatio 0
scalar FogSequentialForward.fog[58].server[0] totalJobs 14839
scalar FogSequentialForward.fog[58].server[0] droppedJobsQueue 779
scalar FogSequentialForward.fog[58].server[0] droppedJobsTimout 0
scalar FogSequentialForward.fog[58].server[0] droppedJobsSLA 9102
scalar FogSequentialForward.fog[58].server[0] droppedJobsTotal 9881
scalar FogSequentialForward.fog[59].dispatcher localJobs 14823
scalar FogSequentialForward.fog[59].dispatcher internalJobs 16209
scalar FogSequentialForward.fog[59].dispatcher externalJobs 6012128
scalar FogSequentialForward.fog[59].dispatcher remoteJobs 6012147
scalar FogSequentialForward.fog[59].dispatcher probeQueries 0
scalar FogSequentialForward.fog[59].dispatcher probeAnswers 0
scalar FogSequentialForward.fog[59].dispatcher droppedJobsSLA 1367
scalar FogSequentialForward.fog[59].dispatcher jobs_class_1 6028337
scalar FogSequentialForward.fog[59].dispatcher remoteJobs_class_1 6012147
scalar FogSequentialForward.fog[59].dispatcher localJobs_class_1 14823
scalar FogSequentialForward.fog[59].dispatcher droppedJobsSLA_class_1 1367
scalar FogSequentialForward.fog[59].server[0] rho 0.99999672174454
scalar FogSequentialForward.fog[59].server[0] congestionRatio 0
scalar FogSequentialForward.fog[59].server[0] totalJobs 14823
scalar FogSequentialForward.fog[59].server[0] droppedJobsQueue 779
scalar FogSequentialForward.fog[59].server[0] droppedJobsTimout 0
scalar FogSequentialForward.fog[59].server[0] droppedJobsSLA 9120
scalar FogSequentialForward.fog[59].server[0] droppedJobsTotal 9899
scalar FogSequentialForward.fog[60].dispatcher localJobs 14843
scalar FogSequentialForward.fog[60].dispatcher internalJobs 16033
scalar FogSequentialForward.fog[60].dispatcher externalJobs 6011849
scalar FogSequentialForward.fog[60].dispatcher remoteJobs 6011639
scalar FogSequentialForward.fog[60].dispatcher probeQueries 0
scalar FogSequentialForward.fog[60].dispatcher probeAnswers 0
scalar FogSequentialForward.fog[60].dispatcher droppedJobsSLA 1400
scalar FogSequentialForward.fog[60].dispatcher jobs_class_1 6027882
scalar FogSequentialForward.fog[60].dispatcher remoteJobs_class_1 6011639
scalar FogSequentialForward.fog[60].dispatcher localJobs_class_1 14843
scalar FogSequentialForward.fog[60].dispatcher droppedJobsSLA_class_1 1400
scalar FogSequentialForward.fog[60].server[0] rho 0.99999612569809
scalar FogSequentialForward.fog[60].server[0] congestionRatio 0
scalar FogSequentialForward.fog[60].server[0] totalJobs 14843
scalar FogSequentialForward.fog[60].server[0] droppedJobsQueue 778
scalar FogSequentialForward.fog[60].server[0] droppedJobsTimout 0
scalar FogSequentialForward.fog[60].server[0] droppedJobsSLA 9180
scalar FogSequentialForward.fog[60].server[0] droppedJobsTotal 9958
scalar FogSequentialForward.fog[61].dispatcher localJobs 14823
scalar FogSequentialForward.fog[61].dispatcher internalJobs 16109
scalar FogSequentialForward.fog[61].dispatcher externalJobs 6013759
scalar FogSequentialForward.fog[61].dispatcher remoteJobs 6013691
scalar FogSequentialForward.fog[61].dispatcher probeQueries 0
scalar FogSequentialForward.fog[61].dispatcher probeAnswers 0
scalar FogSequentialForward.fog[61].dispatcher droppedJobsSLA 1354
scalar FogSequentialForward.fog[61].dispatcher jobs_class_1 6029868
scalar FogSequentialForward.fog[61].dispatcher remoteJobs_class_1 6013691
scalar FogSequentialForward.fog[61].dispatcher localJobs_class_1 14823
scalar FogSequentialForward.fog[61].dispatcher droppedJobsSLA_class_1 1354
scalar FogSequentialForward.fog[61].server[0] rho 0.99999648332596
scalar FogSequentialForward.fog[61].server[0] congestionRatio 0
scalar FogSequentialForward.fog[61].server[0] totalJobs 14823
scalar FogSequentialForward.fog[61].server[0] droppedJobsQueue 776
scalar FogSequentialForward.fog[61].server[0] droppedJobsTimout 0
scalar FogSequentialForward.fog[61].server[0] droppedJobsSLA 9124
scalar FogSequentialForward.fog[61].server[0] droppedJobsTotal 9900
scalar FogSequentialForward.fog[62].dispatcher localJobs 14792
scalar FogSequentialForward.fog[62].dispatcher internalJobs 16285
scalar FogSequentialForward.fog[62].dispatcher externalJobs 6014040
scalar FogSequentialForward.fog[62].dispatcher remoteJobs 6014126
scalar FogSequentialForward.fog[62].dispatcher probeQueries 0
scalar FogSequentialForward.fog[62].dispatcher probeAnswers 0
scalar FogSequentialForward.fog[62].dispatcher droppedJobsSLA 1407
scalar FogSequentialForward.fog[62].dispatcher jobs_class_1 6030325
scalar FogSequentialForward.fog[62].dispatcher remoteJobs_class_1 6014126
scalar FogSequentialForward.fog[62].dispatcher localJobs_class_1 14792
scalar FogSequentialForward.fog[62].dispatcher droppedJobsSLA_class_1 1407
scalar FogSequentialForward.fog[62].server[0] rho 0.99999672174454
scalar FogSequentialForward.fog[62].server[0] congestionRatio 0
scalar FogSequentialForward.fog[62].server[0] totalJobs 14792
scalar FogSequentialForward.fog[62].server[0] droppedJobsQueue 776
scalar FogSequentialForward.fog[62].server[0] droppedJobsTimout 0
scalar FogSequentialForward.fog[62].server[0] droppedJobsSLA 9057
scalar FogSequentialForward.fog[62].server[0] droppedJobsTotal 9833
scalar FogSequentialForward.fog[63].dispatcher localJobs 14813
scalar FogSequentialForward.fog[63].dispatcher internalJobs 16071
scalar FogSequentialForward.fog[63].dispatcher externalJobs 6014185
scalar FogSequentialForward.fog[63].dispatcher remoteJobs 6014038
scalar FogSequentialForward.fog[63].dispatcher probeQueries 0
scalar FogSequentialForward.fog[63].dispatcher probeAnswers 0
scalar FogSequentialForward.fog[63].dispatcher droppedJobsSLA 1405
scalar FogSequentialForward.fog[63].dispatcher jobs_class_1 6030256
scalar FogSequentialForward.fog[63].dispatcher remoteJobs_class_1 6014038
scalar FogSequentialForward.fog[63].dispatcher localJobs_class_1 14813
scalar FogSequentialForward.fog[63].dispatcher droppedJobsSLA_class_1 1405
scalar FogSequentialForward.fog[63].server[0] rho 0.9999960064888
scalar FogSequentialForward.fog[63].server[0] congestionRatio 0
scalar FogSequentialForward.fog[63].server[0] totalJobs 14813
scalar FogSequentialForward.fog[63].server[0] droppedJobsQueue 776
scalar FogSequentialForward.fog[63].server[0] droppedJobsTimout 0
scalar FogSequentialForward.fog[63].server[0] droppedJobsSLA 9083
scalar FogSequentialForward.fog[63].server[0] droppedJobsTotal 9859
scalar FogSequentialForward.fog[64].dispatcher localJobs 14771
scalar FogSequentialForward.fog[64].dispatcher internalJobs 16136
scalar FogSequentialForward.fog[64].dispatcher externalJobs 6013600
scalar FogSequentialForward.fog[64].dispatcher remoteJobs 6013614
scalar FogSequentialForward.fog[64].dispatcher probeQueries 0
scalar FogSequentialForward.fog[64].dispatcher probeAnswers 0
scalar FogSequentialForward.fog[64].dispatcher droppedJobsSLA 1351
scalar FogSequentialForward.fog[64].dispatcher jobs_class_1 6029736
scalar FogSequentialForward.fog[64].dispatcher remoteJobs_class_1 6013614
scalar FogSequentialForward.fog[64].dispatcher localJobs_class_1 14771
scalar FogSequentialForward.fog[64].dispatcher droppedJobsSLA_class_1 1351
scalar FogSequentialForward.fog[64].server[0] rho 0.99999761581421
scalar FogSequentialForward.fog[64].server[0] congestionRatio 0
scalar FogSequentialForward.fog[64].server[0] totalJobs 14771
scalar FogSequentialForward.fog[64].server[0] droppedJobsQueue 776
scalar FogSequentialForward.fog[64].server[0] droppedJobsTimout 0
scalar FogSequentialForward.fog[64].server[0] droppedJobsSLA 9079
scalar FogSequentialForward.fog[64].server[0] droppedJobsTotal 9855
scalar FogSequentialForward.fog[65].dispatcher localJobs 14810
scalar FogSequentialForward.fog[65].dispatcher internalJobs 16192
scalar FogSequentialForward.fog[65].dispatcher externalJobs 6010453
scalar FogSequentialForward.fog[65].dispatcher remoteJobs 6010406
scalar FogSequentialForward.fog[65].dispatcher probeQueries 0
scalar FogSequentialForward.fog[65].dispatcher probeAnswers 0
scalar FogSequentialForward.fog[65].dispatcher droppedJobsSLA 1429
scalar FogSequentialForward.fog[65].dispatcher jobs_class_1 6026645
scalar FogSequentialForward.fog[65].dispatcher remoteJobs_class_1 6010406
scalar FogSequentialForward.fog[65].dispatcher localJobs_class_1 14810
scalar FogSequentialForward.fog[65].dispatcher droppedJobsSLA_class_1 1429
[...]
scalar FogSequentialForward.fog[84].dispatcher probeAnswers 0
scalar FogSequentialForward.fog[84].dispatcher droppedJobsSLA 1408
scalar FogSequentialForward.fog[84].dispatcher jobs_class_1 6035439
scalar FogSequentialForward.fog[84].dispatcher remoteJobs_class_1 6019130
scalar FogSequentialForward.fog[84].dispatcher localJobs_class_1 14901
scalar FogSequentialForward.fog[84].dispatcher droppedJobsSLA_class_1 1408
scalar FogSequentialForward.fog[84].server[0] rho 0.99999594688416
scalar FogSequentialForward.fog[84].server[0] congestionRatio 0
scalar FogSequentialForward.fog[84].server[0] totalJobs 14901
scalar FogSequentialForward.fog[84].server[0] droppedJobsQueue 779
scalar FogSequentialForward.fog[84].server[0] droppedJobsTimout 0
scalar FogSequentialForward.fog[84].server[0] droppedJobsSLA 9219
scalar FogSequentialForward.fog[84].server[0] droppedJobsTotal 9998
scalar FogSequentialForward.fog[85].dispatcher localJobs 14786
scalar FogSequentialForward.fog[85].dispatcher internalJobs 16182
scalar FogSequentialForward.fog[85].dispatcher externalJobs 6014134
scalar FogSequentialForward.fog[85].dispatcher remoteJobs 6014147
scalar FogSequentialForward.fog[85].dispatcher probeQueries 0
scalar FogSequentialForward.fog[85].dispatcher probeAnswers 0
scalar FogSequentialForward.fog[85].dispatcher droppedJobsSLA 1383
scalar FogSequentialForward.fog[85].dispatcher jobs_class_1 6030316
scalar FogSequentialForward.fog[85].dispatcher remoteJobs_class_1 6014147
scalar FogSequentialForward.fog[85].dispatcher localJobs_class_1 14786
scalar FogSequentialForward.fog[85].dispatcher droppedJobsSLA_class_1 1383
scalar FogSequentialForward.fog[85].server[0] rho 0.99999636411667
scalar FogSequentialForward.fog[85].server[0] congestionRatio 0
scalar FogSequentialForward.fog[85].server[0] totalJobs 14786
scalar FogSequentialForward.fog[85].server[0] droppedJobsQueue 775
scalar FogSequentialForward.fog[85].server[0] droppedJobsTimout 0
scalar FogSequentialForward.fog[85].server[0] droppedJobsSLA 9097
scalar FogSequentialForward.fog[85].server[0] droppedJobsTotal 9872
scalar FogSequentialForward.fog[86].dispatcher localJobs 14787
scalar FogSequentialForward.fog[86].dispatcher internalJobs 16214
scalar FogSequentialForward.fog[86].dispatcher externalJobs 6011795
scalar FogSequentialForward.fog[86].dispatcher remoteJobs 6011850
scalar FogSequentialForward.fog[86].dispatcher probeQueries 0
scalar FogSequentialForward.fog[86].dispatcher probeAnswers 0
scalar FogSequentialForward.fog[86].dispatcher droppedJobsSLA 1372
scalar FogSequentialForward.fog[86].dispatcher jobs_class_1 6028009
scalar FogSequentialForward.fog[86].dispatcher remoteJobs_class_1 6011850
scalar FogSequentialForward.fog[86].dispatcher localJobs_class_1 14787
scalar FogSequentialForward.fog[86].dispatcher droppedJobsSLA_class_1 1372
scalar FogSequentialForward.fog[86].server[0] rho 0.99999701976776
scalar FogSequentialForward.fog[86].server[0] congestionRatio 0
scalar FogSequentialForward.fog[86].server[0] totalJobs 14787
scalar FogSequentialForward.fog[86].server[0] droppedJobsQueue 774
scalar FogSequentialForward.fog[86].server[0] droppedJobsTimout 0
scalar FogSequentialForward.fog[86].server[0] droppedJobsSLA 9106
scalar FogSequentialForward.fog[86].server[0] droppedJobsTotal 9880
scalar FogSequentialForward.fog[87].dispatcher localJobs 14759
scalar FogSequentialForward.fog[87].dispatcher internalJobs 16272
scalar FogSequentialForward.fog[87].dispatcher externalJobs 6009989
scalar FogSequentialForward.fog[87].dispatcher remoteJobs 6010190
scalar FogSequentialForward.fog[87].dispatcher probeQueries 0
scalar FogSequentialForward.fog[87].dispatcher probeAnswers 0
scalar FogSequentialForward.fog[87].dispatcher droppedJobsSLA 1312
scalar FogSequentialForward.fog[87].dispatcher jobs_class_1 6026261
scalar FogSequentialForward.fog[87].dispatcher remoteJobs_class_1 6010190
scalar FogSequentialForward.fog[87].dispatcher localJobs_class_1 14759
scalar FogSequentialForward.fog[87].dispatcher droppedJobsSLA_class_1 1312
scalar FogSequentialForward.fog[87].server[0] rho 0.99999684095383
scalar FogSequentialForward.fog[87].server[0] congestionRatio 0
scalar FogSequentialForward.fog[87].server[0] totalJobs 14759
scalar FogSequentialForward.fog[87].server[0] droppedJobsQueue 775
scalar FogSequentialForward.fog[87].server[0] droppedJobsTimout 0
scalar FogSequentialForward.fog[87].server[0] droppedJobsSLA 9044
scalar FogSequentialForward.fog[87].server[0] droppedJobsTotal 9819
scalar FogSequentialForward.fog[88].dispatcher localJobs 14807
scalar FogSequentialForward.fog[88].dispatcher internalJobs 16324
scalar FogSequentialForward.fog[88].dispatcher externalJobs 6009065
scalar FogSequentialForward.fog[88].dispatcher remoteJobs 6009169
scalar FogSequentialForward.fog[88].dispatcher probeQueries 0
scalar FogSequentialForward.fog[88].dispatcher probeAnswers 0
scalar FogSequentialForward.fog[88].dispatcher droppedJobsSLA 1413
scalar FogSequentialForward.fog[88].dispatcher jobs_class_1 6025389
scalar FogSequentialForward.fog[88].dispatcher remoteJobs_class_1 6009169
scalar FogSequentialForward.fog[88].dispatcher localJobs_class_1 14807
scalar FogSequentialForward.fog[88].dispatcher droppedJobsSLA_class_1 1413
scalar FogSequentialForward.fog[88].server[0] rho 0.99999505281448
scalar FogSequentialForward.fog[88].server[0] congestionRatio 0
scalar FogSequentialForward.fog[88].server[0] totalJobs 14807
scalar FogSequentialForward.fog[88].server[0] droppedJobsQueue 779
scalar FogSequentialForward.fog[88].server[0] droppedJobsTimout 0
scalar FogSequentialForward.fog[88].server[0] droppedJobsSLA 9126
scalar FogSequentialForward.fog[88].server[0] droppedJobsTotal 9905
scalar FogSequentialForward.fog[89].dispatcher localJobs 14833
scalar FogSequentialForward.fog[89].dispatcher internalJobs 16318
scalar FogSequentialForward.fog[89].dispatcher externalJobs 6013259
scalar FogSequentialForward.fog[89].dispatcher remoteJobs 6013374
scalar FogSequentialForward.fog[89].dispatcher probeQueries 0
scalar FogSequentialForward.fog[89].dispatcher probeAnswers 0
scalar FogSequentialForward.fog[89].dispatcher droppedJobsSLA 1370
scalar FogSequentialForward.fog[89].dispatcher jobs_class_1 6029577
scalar FogSequentialForward.fog[89].dispatcher remoteJobs_class_1 6013374
scalar FogSequentialForward.fog[89].dispatcher localJobs_class_1 14833
scalar FogSequentialForward.fog[89].dispatcher droppedJobsSLA_class_1 1370
scalar FogSequentialForward.fog[89].server[0] rho 0.99986356496811
scalar FogSequentialForward.fog[89].server[0] congestionRatio 0
scalar FogSequentialForward.fog[89].server[0] totalJobs 14833
scalar FogSequentialForward.fog[89].server[0] droppedJobsQueue 780
scalar FogSequentialForward.fog[89].server[0] droppedJobsTimout 0
scalar FogSequentialForward.fog[89].server[0] droppedJobsSLA 9138
scalar FogSequentialForward.fog[89].server[0] droppedJobsTotal 9918
scalar FogSequentialForward.fog[90].dispatcher localJobs 14757
scalar FogSequentialForward.fog[90].dispatcher internalJobs 16035
scalar FogSequentialForward.fog[90].dispatcher externalJobs 6011827
scalar FogSequentialForward.fog[90].dispatcher remoteJobs 6011696
scalar FogSequentialForward.fog[90].dispatcher probeQueries 0
scalar FogSequentialForward.fog[90].dispatcher probeAnswers 0
scalar FogSequentialForward.fog[90].dispatcher droppedJobsSLA 1409
scalar FogSequentialForward.fog[90].dispatcher jobs_class_1 6027862
scalar FogSequentialForward.fog[90].dispatcher remoteJobs_class_1 6011696
scalar FogSequentialForward.fog[90].dispatcher localJobs_class_1 14757
scalar FogSequentialForward.fog[90].dispatcher droppedJobsSLA_class_1 1409
scalar FogSequentialForward.fog[90].server[0] rho 0.99999505281448
scalar FogSequentialForward.fog[90].server[0] congestionRatio 0
scalar FogSequentialForward.fog[90].server[0] totalJobs 14757
scalar FogSequentialForward.fog[90].server[0] droppedJobsQueue 772
scalar FogSequentialForward.fog[90].server[0] droppedJobsTimout 0
scalar FogSequentialForward.fog[90].server[0] droppedJobsSLA 9046
scalar FogSequentialForward.fog[90].server[0] droppedJobsTotal 9818
scalar FogSequentialForward.fog[91].dispatcher localJobs 14801
scalar FogSequentialForward.fog[91].dispatcher internalJobs 16262
scalar FogSequentialForward.fog[91].dispatcher externalJobs 6010717
scalar FogSequentialForward.fog[91].dispatcher remoteJobs 6010841
scalar FogSequentialForward.fog[91].dispatcher probeQueries 0
scalar FogSequentialForward.fog[91].dispatcher probeAnswers 0
scalar FogSequentialForward.fog[91].dispatcher droppedJobsSLA 1337
scalar FogSequentialForward.fog[91].dispatcher jobs_class_1 6026979
scalar FogSequentialForward.fog[91].dispatcher remoteJobs_class_1 6010841
scalar FogSequentialForward.fog[91].dispatcher localJobs_class_1 14801
scalar FogSequentialForward.fog[91].dispatcher droppedJobsSLA_class_1 1337
scalar FogSequentialForward.fog[91].server[0] rho 0.99999529123306
scalar FogSequentialForward.fog[91].server[0] congestionRatio 0
scalar FogSequentialForward.fog[91].server[0] totalJobs 14801
scalar FogSequentialForward.fog[91].server[0] droppedJobsQueue 773
scalar FogSequentialForward.fog[91].server[0] droppedJobsTimout 0
scalar FogSequentialForward.fog[91].server[0] droppedJobsSLA 9166
scalar FogSequentialForward.fog[91].server[0] droppedJobsTotal 9939
scalar FogSequentialForward.fog[92].dispatcher localJobs 14795
scalar FogSequentialForward.fog[92].dispatcher internalJobs 16379
scalar FogSequentialForward.fog[92].dispatcher externalJobs 6013532
scalar FogSequentialForward.fog[92].dispatcher remoteJobs 6013697
scalar FogSequentialForward.fog[92].dispatcher probeQueries 0
scalar FogSequentialForward.fog[92].dispatcher probeAnswers 0
scalar FogSequentialForward.fog[92].dispatcher droppedJobsSLA 1419
scalar FogSequentialForward.fog[92].dispatcher jobs_class_1 6029911
scalar FogSequentialForward.fog[92].dispatcher remoteJobs_class_1 6013697
scalar FogSequentialForward.fog[92].dispatcher localJobs_class_1 14795
scalar FogSequentialForward.fog[92].dispatcher droppedJobsSLA_class_1 1419
scalar FogSequentialForward.fog[92].server[0] rho 0.9999971985817
scalar FogSequentialForward.fog[92].server[0] congestionRatio 0
scalar FogSequentialForward.fog[92].server[0] totalJobs 14795
scalar FogSequentialForward.fog[92].server[0] droppedJobsQueue 777
scalar FogSequentialForward.fog[92].server[0] droppedJobsTimout 0
scalar FogSequentialForward.fog[92].server[0] droppedJobsSLA 9126
scalar FogSequentialForward.fog[92].server[0] droppedJobsTotal 9903
scalar FogSequentialForward.fog[93].dispatcher localJobs 14864
scalar FogSequentialForward.fog[93].dispatcher internalJobs 16142
scalar FogSequentialForward.fog[93].dispatcher externalJobs 6011931
scalar FogSequentialForward.fog[93].dispatcher remoteJobs 6011865
scalar FogSequentialForward.fog[93].dispatcher probeQueries 0
scalar FogSequentialForward.fog[93].dispatcher probeAnswers 0
scalar FogSequentialForward.fog[93].dispatcher droppedJobsSLA 1344
scalar FogSequentialForward.fog[93].dispatcher jobs_class_1 6028073
scalar FogSequentialForward.fog[93].dispatcher remoteJobs_class_1 6011865
scalar FogSequentialForward.fog[93].dispatcher localJobs_class_1 14864
scalar FogSequentialForward.fog[93].dispatcher droppedJobsSLA_class_1 1344
scalar FogSequentialForward.fog[93].server[0] rho 0.99999690055847
scalar FogSequentialForward.fog[93].server[0] congestionRatio 0
scalar FogSequentialForward.fog[93].server[0] totalJobs 14864
scalar FogSequentialForward.fog[93].server[0] droppedJobsQueue 781
scalar FogSequentialForward.fog[93].server[0] droppedJobsTimout 0
scalar FogSequentialForward.fog[93].server[0] droppedJobsSLA 9171
scalar FogSequentialForward.fog[93].server[0] droppedJobsTotal 9952
scalar FogSequentialForward.fog[94].dispatcher localJobs 14815
scalar FogSequentialForward.fog[94].dispatcher internalJobs 16036
scalar FogSequentialForward.fog[94].dispatcher externalJobs 6013314
scalar FogSequentialForward.fog[94].dispatcher remoteJobs 6013156
scalar FogSequentialForward.fog[94].dispatcher probeQueries 0
scalar FogSequentialForward.fog[94].dispatcher probeAnswers 0
scalar FogSequentialForward.fog[94].dispatcher droppedJobsSLA 1379
scalar FogSequentialForward.fog[94].dispatcher jobs_class_1 6029350
scalar FogSequentialForward.fog[94].dispatcher remoteJobs_class_1 6013156
scalar FogSequentialForward.fog[94].dispatcher localJobs_class_1 14815
scalar FogSequentialForward.fog[94].dispatcher droppedJobsSLA_class_1 1379
scalar FogSequentialForward.fog[94].server[0] rho 0.99999767541885
scalar FogSequentialForward.fog[94].server[0] congestionRatio 0
scalar FogSequentialForward.fog[94].server[0] totalJobs 14815
scalar FogSequentialForward.fog[94].server[0] droppedJobsQueue 780
scalar FogSequentialForward.fog[94].server[0] droppedJobsTimout 0
scalar FogSequentialForward.fog[94].server[0] droppedJobsSLA 9122
scalar FogSequentialForward.fog[94].server[0] droppedJobsTotal 9902
scalar FogSequentialForward.fog[95].dispatcher localJobs 14868
scalar FogSequentialForward.fog[95].dispatcher internalJobs 16353
scalar FogSequentialForward.fog[95].dispatcher externalJobs 6012187
scalar FogSequentialForward.fog[95].dispatcher remoteJobs 6012326
scalar FogSequentialForward.fog[95].dispatcher probeQueries 0
scalar FogSequentialForward.fog[95].dispatcher probeAnswers 0
scalar FogSequentialForward.fog[95].dispatcher droppedJobsSLA 1346
scalar FogSequentialForward.fog[95].dispatcher jobs_class_1 6028540
scalar FogSequentialForward.fog[95].dispatcher remoteJobs_class_1 6012326
scalar FogSequentialForward.fog[95].dispatcher localJobs_class_1 14868
scalar FogSequentialForward.fog[95].dispatcher droppedJobsSLA_class_1 1346
scalar FogSequentialForward.fog[95].server[0] rho 0.99999511241913
scalar FogSequentialForward.fog[95].server[0] congestionRatio 0
scalar FogSequentialForward.fog[95].server[0] totalJobs 14868
scalar FogSequentialForward.fog[95].server[0] droppedJobsQueue 781
scalar FogSequentialForward.fog[95].server[0] droppedJobsTimout 0
scalar FogSequentialForward.fog[95].server[0] droppedJobsSLA 9153
scalar FogSequentialForward.fog[95].server[0] droppedJobsTotal 9934
scalar FogSequentialForward.fog[96].dispatcher localJobs 14834
scalar FogSequentialForward.fog[96].dispatcher internalJobs 16098
scalar FogSequentialForward.fog[96].dispatcher externalJobs 6014575
scalar FogSequentialForward.fog[96].dispatcher remoteJobs 6014428
scalar FogSequentialForward.fog[96].dispatcher probeQueries 0
scalar FogSequentialForward.fog[96].dispatcher probeAnswers 0
scalar FogSequentialForward.fog[96].dispatcher droppedJobsSLA 1411
scalar FogSequentialForward.fog[96].dispatcher jobs_class_1 6030673
scalar FogSequentialForward.fog[96].dispatcher remoteJobs_class_1 6014428
scalar FogSequentialForward.fog[96].dispatcher localJobs_class_1 14834
scalar FogSequentialForward.fog[96].dispatcher droppedJobsSLA_class_1 1411
scalar FogSequentialForward.fog[96].server[0] rho 0.99999594688416
scalar FogSequentialForward.fog[96].server[0] congestionRatio 0
scalar FogSequentialForward.fog[96].server[0] totalJobs 14834
scalar FogSequentialForward.fog[96].server[0] droppedJobsQueue 780
scalar FogSequentialForward.fog[96].server[0] droppedJobsTimout 0
scalar FogSequentialForward.fog[96].server[0] droppedJobsSLA 9162
scalar FogSequentialForward.fog[96].server[0] droppedJobsTotal 9942
scalar FogSequentialForward.fog[97].dispatcher localJobs 14840
scalar FogSequentialForward.fog[97].dispatcher internalJobs 16365
scalar FogSequentialForward.fog[97].dispatcher externalJobs 6010165
scalar FogSequentialForward.fog[97].dispatcher remoteJobs 6010264
scalar FogSequentialForward.fog[97].dispatcher probeQueries 0
scalar FogSequentialForward.fog[97].dispatcher probeAnswers 0
scalar FogSequentialForward.fog[97].dispatcher droppedJobsSLA 1426
scalar FogSequentialForward.fog[97].dispatcher jobs_class_1 6026530
scalar FogSequentialForward.fog[97].dispatcher remoteJobs_class_1 6010264
scalar FogSequentialForward.fog[97].dispatcher localJobs_class_1 14840
scalar FogSequentialForward.fog[97].dispatcher droppedJobsSLA_class_1 1426
scalar FogSequentialForward.fog[97].server[0] rho 0.99999278783798
scalar FogSequentialForward.fog[97].server[0] congestionRatio 0
scalar FogSequentialForward.fog[97].server[0] totalJobs 14840
scalar FogSequentialForward.fog[97].server[0] droppedJobsQueue 779
scalar FogSequentialForward.fog[97].server[0] droppedJobsTimout 0
scalar FogSequentialForward.fog[97].server[0] droppedJobsSLA 9122
scalar FogSequentialForward.fog[97].server[0] droppedJobsTotal 9901
scalar FogSequentialForward.fog[98].dispatcher localJobs 14837
scalar FogSequentialForward.fog[98].dispatcher internalJobs 16411
scalar FogSequentialForward.fog[98].dispatcher externalJobs 6010799
scalar FogSequentialForward.fog[98].dispatcher remoteJobs 6011021
scalar FogSequentialForward.fog[98].dispatcher probeQueries 0
scalar FogSequentialForward.fog[98].dispatcher probeAnswers 0
scalar FogSequentialForward.fog[98].dispatcher droppedJobsSLA 1352
scalar FogSequentialForward.fog[98].dispatcher jobs_class_1 6027210
scalar FogSequentialForward.fog[98].dispatcher remoteJobs_class_1 6011021
scalar FogSequentialForward.fog[98].dispatcher localJobs_class_1 14837
scalar FogSequentialForward.fog[98].dispatcher droppedJobsSLA_class_1 1352
scalar FogSequentialForward.fog[98].server[0] rho 0.99999541044235
scalar FogSequentialForward.fog[98].server[0] congestionRatio 0
scalar FogSequentialForward.fog[98].server[0] totalJobs 14837
scalar FogSequentialForward.fog[98].server[0] droppedJobsQueue 778
scalar FogSequentialForward.fog[98].server[0] droppedJobsTimout 0
scalar FogSequentialForward.fog[98].server[0] droppedJobsSLA 9134
scalar FogSequentialForward.fog[98].server[0] droppedJobsTotal 9912
scalar FogSequentialForward.fog[99].dispatcher localJobs 14852
scalar FogSequentialForward.fog[99].dispatcher internalJobs 16252
scalar FogSequentialForward.fog[99].dispatcher externalJobs 6013882
scalar FogSequentialForward.fog[99].dispatcher remoteJobs 6013897
scalar FogSequentialForward.fog[99].dispatcher probeQueries 0
scalar FogSequentialForward.fog[99].dispatcher probeAnswers 0
scalar FogSequentialForward.fog[99].dispatcher droppedJobsSLA 1385
scalar FogSequentialForward.fog[99].dispatcher jobs_class_1 6030134
scalar FogSequentialForward.fog[99].dispatcher remoteJobs_class_1 6013897
scalar FogSequentialForward.fog[99].dispatcher localJobs_class_1 14852
scalar FogSequentialForward.fog[99].dispatcher droppedJobsSLA_class_1 1385
scalar FogSequentialForward.fog[99].server[0] rho 0.9999942779541
scalar FogSequentialForward.fog[99].server[0] congestionRatio 0
scalar FogSequentialForward.fog[99].server[0] totalJobs 14852
scalar FogSequentialForward.fog[99].server[0] droppedJobsQueue 777
scalar FogSequentialForward.fog[99].server[0] droppedJobsTimout 0
scalar FogSequentialForward.fog[99].server[0] droppedJobsSLA 9190
scalar FogSequentialForward.fog[99].server[0] droppedJobsTotal 9967
scalar FogSequentialForward.sink avg_responseTime_1 12.14761798891
scalar FogSequentialForward.sink p90_responseTime_1 1.599651412518
scalar FogSequentialForward.sink med_responseTime_1 1.599651412518
scalar FogSequentialForward.sink avg_delayTime_1 0
scalar FogSequentialForward.sink p90_delayTime_1 0
scalar FogSequentialForward.sink med_delayTime_1 0
scalar FogSequentialForward.sink avg_queuingTime_1 7.5455913779874
scalar FogSequentialForward.sink p90_queuingTime_1 0
scalar FogSequentialForward.sink med_queuingTime_1 0
scalar FogSequentialForward.sink avg_serviceTime_1 1.6720100051896
scalar FogSequentialForward.sink p90_serviceTime_1 1.514400914503
scalar FogSequentialForward.sink med_serviceTime_1 1.514400914503
scalar FogSequentialForward.sink avg_balancerTime_1 2.9300166057331
scalar FogSequentialForward.sink p90_balancerTime_1 0
scalar FogSequentialForward.sink med_balancerTime_1 0
scalar FogSequentialForward.sink avg_balancerCount_1 176.45009615168
scalar FogSequentialForward.sink p90_balancerCount_1 1
scalar FogSequentialForward.sink med_balancerCount_1 1

