version 2
run Fog-mul_10-rho_02-thr_3-2-20190714-01:54:54-88814
attr configname Fog-mul_10-rho_02-thr_3
attr datetime 20190714-01:54:54
attr experiment Fog-mul_10-rho_02-thr_3
attr inifile FogSequentialForward.ini
attr iterationvars ""
attr iterationvarsf ""
attr measurement ""
attr network FogSequentialForward
attr processid 88814
attr repetition 2
attr replication #2
attr resultdir results
attr runnumber 2
attr seedset 2
param FogSequentialForward.proctimeMul 1.0
param FogSequentialForward.rho 0.2
param FogSequentialForward.fog[*].dispatcher.thr 3
param FogSequentialForward.nSources 100
param FogSequentialForward.rho 0.9
param FogSequentialForward.proctimeMul 1.0
param FogSequentialForward.source[*].appId 1
param FogSequentialForward.source[*].realTime true
param FogSequentialForward.source[*].multiHop true
param FogSequentialForward.fog[*].nServers 1
param FogSequentialForward.fog[*].dispatcher.fanOut 1
param FogSequentialForward.fog[*].server[*].timeSlice -1s
param FogSequentialForward.fog[*].server[*].timeout -1s
param FogSequentialForward.fog[*].server[*].capacity 20
param FogSequentialForward.fog[*].server[*].fifo true
param FogSequentialForward.fog[*].server[*].maxServiceTime -1s
param FogSequentialForward.fog[*].dispatcher.thr 1

scalar FogSequentialForward.fog[0].dispatcher localJobs 3630
scalar FogSequentialForward.fog[0].dispatcher internalJobs 3612
scalar FogSequentialForward.fog[0].dispatcher externalJobs 307
scalar FogSequentialForward.fog[0].dispatcher remoteJobs 289
scalar FogSequentialForward.fog[0].dispatcher probeQueries 0
scalar FogSequentialForward.fog[0].dispatcher probeAnswers 0
scalar FogSequentialForward.fog[0].dispatcher droppedJobsSLA 0
scalar FogSequentialForward.fog[0].dispatcher jobs_class_1 3919
scalar FogSequentialForward.fog[0].dispatcher remoteJobs_class_1 289
scalar FogSequentialForward.fog[0].dispatcher localJobs_class_1 3630
scalar FogSequentialForward.fog[0].server[0] rho 0.5613466501236
scalar FogSequentialForward.fog[0].server[0] congestionRatio 0
scalar FogSequentialForward.fog[0].server[0] totalJobs 3630
scalar FogSequentialForward.fog[0].server[0] droppedJobsQueue 0
scalar FogSequentialForward.fog[0].server[0] droppedJobsTimout 0
scalar FogSequentialForward.fog[0].server[0] droppedJobsSLA 0
scalar FogSequentialForward.fog[0].server[0] droppedJobsTotal 0
scalar FogSequentialForward.fog[1].dispatcher localJobs 3626
scalar FogSequentialForward.fog[1].dispatcher internalJobs 3571
scalar FogSequentialForward.fog[1].dispatcher externalJobs 340
scalar FogSequentialForward.fog[1].dispatcher remoteJobs 285
scalar FogSequentialForward.fog[1].dispatcher probeQueries 0
scalar FogSequentialForward.fog[1].dispatcher probeAnswers 0
scalar FogSequentialForward.fog[1].dispatcher droppedJobsSLA 0
scalar FogSequentialForward.fog[1].dispatcher jobs_class_1 3911
scalar FogSequentialForward.fog[1].dispatcher remoteJobs_class_1 285
scalar FogSequentialForward.fog[1].dispatcher localJobs_class_1 3626
scalar FogSequentialForward.fog[1].server[0] rho 0.56068164110184
scalar FogSequentialForward.fog[1].server[0] congestionRatio 0
scalar FogSequentialForward.fog[1].server[0] totalJobs 3626
scalar FogSequentialForward.fog[1].server[0] droppedJobsQueue 0
scalar FogSequentialForward.fog[1].server[0] droppedJobsTimout 0
scalar FogSequentialForward.fog[1].server[0] droppedJobsSLA 0
scalar FogSequentialForward.fog[1].server[0] droppedJobsTotal 0
scalar FogSequentialForward.fog[2].dispatcher localJobs 3642
scalar FogSequentialForward.fog[2].dispatcher internalJobs 3655
scalar FogSequentialForward.fog[2].dispatcher externalJobs 278
scalar FogSequentialForward.fog[2].dispatcher remoteJobs 291
scalar FogSequentialForward.fog[2].dispatcher probeQueries 0
scalar FogSequentialForward.fog[2].dispatcher probeAnswers 0
scalar FogSequentialForward.fog[2].dispatcher droppedJobsSLA 0
scalar FogSequentialForward.fog[2].dispatcher jobs_class_1 3933
scalar FogSequentialForward.fog[2].dispatcher remoteJobs_class_1 291
scalar FogSequentialForward.fog[2].dispatcher localJobs_class_1 3642
scalar FogSequentialForward.fog[2].server[0] rho 0.56307071447372
scalar FogSequentialForward.fog[2].server[0] congestionRatio 0
scalar FogSequentialForward.fog[2].server[0] totalJobs 3642
scalar FogSequentialForward.fog[2].server[0] droppedJobsQueue 0
scalar FogSequentialForward.fog[2].server[0] droppedJobsTimout 0
scalar FogSequentialForward.fog[2].server[0] droppedJobsSLA 0
scalar FogSequentialForward.fog[2].server[0] droppedJobsTotal 0
scalar FogSequentialForward.fog[3].dispatcher localJobs 3563
scalar FogSequentialForward.fog[3].dispatcher internalJobs 3573
scalar FogSequentialForward.fog[3].dispatcher externalJobs 273
scalar FogSequentialForward.fog[3].dispatcher remoteJobs 283
scalar FogSequentialForward.fog[3].dispatcher probeQueries 0
scalar FogSequentialForward.fog[3].dispatcher probeAnswers 0
scalar FogSequentialForward.fog[3].dispatcher droppedJobsSLA 0
scalar FogSequentialForward.fog[3].dispatcher jobs_class_1 3846
scalar FogSequentialForward.fog[3].dispatcher remoteJobs_class_1 283
scalar FogSequentialForward.fog[3].dispatcher localJobs_class_1 3563
scalar FogSequentialForward.fog[3].server[0] rho 0.55100232362747
scalar FogSequentialForward.fog[3].server[0] congestionRatio 0
scalar FogSequentialForward.fog[3].server[0] totalJobs 3563
scalar FogSequentialForward.fog[3].server[0] droppedJobsQueue 0
scalar FogSequentialForward.fog[3].server[0] droppedJobsTimout 0
scalar FogSequentialForward.fog[3].server[0] droppedJobsSLA 0
scalar FogSequentialForward.fog[3].server[0] droppedJobsTotal 0
scalar FogSequentialForward.fog[4].dispatcher localJobs 3581
scalar FogSequentialForward.fog[4].dispatcher internalJobs 3609
scalar FogSequentialForward.fog[4].dispatcher externalJobs 292
scalar FogSequentialForward.fog[4].dispatcher remoteJobs 320
scalar FogSequentialForward.fog[4].dispatcher probeQueries 0
scalar FogSequentialForward.fog[4].dispatcher probeAnswers 0
scalar FogSequentialForward.fog[4].dispatcher droppedJobsSLA 0
scalar FogSequentialForward.fog[4].dispatcher jobs_class_1 3901
scalar FogSequentialForward.fog[4].dispatcher remoteJobs_class_1 320
scalar FogSequentialForward.fog[4].dispatcher localJobs_class_1 3581
scalar FogSequentialForward.fog[4].server[0] rho 0.55369979143143
scalar FogSequentialForward.fog[4].server[0] congestionRatio 0
scalar FogSequentialForward.fog[4].server[0] totalJobs 3581
scalar FogSequentialForward.fog[4].server[0] droppedJobsQueue 0
scalar FogSequentialForward.fog[4].server[0] droppedJobsTimout 0
scalar FogSequentialForward.fog[4].server[0] droppedJobsSLA 0
scalar FogSequentialForward.fog[4].server[0] droppedJobsTotal 0
scalar FogSequentialForward.fog[5].dispatcher localJobs 3620
scalar FogSequentialForward.fog[5].dispatcher internalJobs 3611
scalar FogSequentialForward.fog[5].dispatcher externalJobs 306
scalar FogSequentialForward.fog[5].dispatcher remoteJobs 297
scalar FogSequentialForward.fog[5].dispatcher probeQueries 0
scalar FogSequentialForward.fog[5].dispatcher probeAnswers 0
scalar FogSequentialForward.fog[5].dispatcher droppedJobsSLA 0
scalar FogSequentialForward.fog[5].dispatcher jobs_class_1 3917
scalar FogSequentialForward.fog[5].dispatcher remoteJobs_class_1 297
scalar FogSequentialForward.fog[5].dispatcher localJobs_class_1 3620
scalar FogSequentialForward.fog[5].server[0] rho 0.56005525588989
scalar FogSequentialForward.fog[5].server[0] congestionRatio 0
scalar FogSequentialForward.fog[5].server[0] totalJobs 3620
scalar FogSequentialForward.fog[5].server[0] droppedJobsQueue 0
scalar FogSequentialForward.fog[5].server[0] droppedJobsTimout 0
scalar FogSequentialForward.fog[5].server[0] droppedJobsSLA 0
scalar FogSequentialForward.fog[5].server[0] droppedJobsTotal 0
scalar FogSequentialForward.fog[6].dispatcher localJobs 3599
scalar FogSequentialForward.fog[6].dispatcher internalJobs 3608
scalar FogSequentialForward.fog[6].dispatcher externalJobs 286
scalar FogSequentialForward.fog[6].dispatcher remoteJobs 295
scalar FogSequentialForward.fog[6].dispatcher probeQueries 0
scalar FogSequentialForward.fog[6].dispatcher probeAnswers 0
scalar FogSequentialForward.fog[6].dispatcher droppedJobsSLA 0
scalar FogSequentialForward.fog[6].dispatcher jobs_class_1 3894
scalar FogSequentialForward.fog[6].dispatcher remoteJobs_class_1 295
scalar FogSequentialForward.fog[6].dispatcher localJobs_class_1 3599
scalar FogSequentialForward.fog[6].server[0] rho 0.55678391456604
scalar FogSequentialForward.fog[6].server[0] congestionRatio 0
scalar FogSequentialForward.fog[6].server[0] totalJobs 3599
scalar FogSequentialForward.fog[6].server[0] droppedJobsQueue 0
scalar FogSequentialForward.fog[6].server[0] droppedJobsTimout 0
scalar FogSequentialForward.fog[6].server[0] droppedJobsSLA 0
scalar FogSequentialForward.fog[6].server[0] droppedJobsTotal 0
scalar FogSequentialForward.fog[7].dispatcher localJobs 3616
scalar FogSequentialForward.fog[7].dispatcher internalJobs 3642
scalar FogSequentialForward.fog[7].dispatcher externalJobs 307
scalar FogSequentialForward.fog[7].dispatcher remoteJobs 333
scalar FogSequentialForward.fog[7].dispatcher probeQueries 0
scalar FogSequentialForward.fog[7].dispatcher probeAnswers 0
scalar FogSequentialForward.fog[7].dispatcher droppedJobsSLA 0
scalar FogSequentialForward.fog[7].dispatcher jobs_class_1 3949
scalar FogSequentialForward.fog[7].dispatcher remoteJobs_class_1 333
scalar FogSequentialForward.fog[7].dispatcher localJobs_class_1 3616
scalar FogSequentialForward.fog[7].server[0] rho 0.55915439128876
scalar FogSequentialForward.fog[7].server[0] congestionRatio 0
scalar FogSequentialForward.fog[7].server[0] totalJobs 3616
scalar FogSequentialForward.fog[7].server[0] droppedJobsQueue 0
scalar FogSequentialForward.fog[7].server[0] droppedJobsTimout 0
scalar FogSequentialForward.fog[7].server[0] droppedJobsSLA 0
scalar FogSequentialForward.fog[7].server[0] droppedJobsTotal 0
scalar FogSequentialForward.fog[8].dispatcher localJobs 3513
scalar FogSequentialForward.fog[8].dispatcher internalJobs 3479
scalar FogSequentialForward.fog[8].dispatcher externalJobs 275
scalar FogSequentialForward.fog[8].dispatcher remoteJobs 241
scalar FogSequentialForward.fog[8].dispatcher probeQueries 0
scalar FogSequentialForward.fog[8].dispatcher probeAnswers 0
scalar FogSequentialForward.fog[8].dispatcher droppedJobsSLA 0
scalar FogSequentialForward.fog[8].dispatcher jobs_class_1 3754
scalar FogSequentialForward.fog[8].dispatcher remoteJobs_class_1 241
scalar FogSequentialForward.fog[8].dispatcher localJobs_class_1 3513
scalar FogSequentialForward.fog[8].server[0] rho 0.5432054400444
scalar FogSequentialForward.fog[8].server[0] congestionRatio 0
scalar FogSequentialForward.fog[8].server[0] totalJobs 3513
scalar FogSequentialForward.fog[8].server[0] droppedJobsQueue 0
scalar FogSequentialForward.fog[8].server[0] droppedJobsTimout 0
scalar FogSequentialForward.fog[8].server[0] droppedJobsSLA 0
scalar FogSequentialForward.fog[8].server[0] droppedJobsTotal 0
scalar FogSequentialForward.fog[9].dispatcher localJobs 3659
scalar FogSequentialForward.fog[9].dispatcher internalJobs 3661
scalar FogSequentialForward.fog[9].dispatcher externalJobs 288
scalar FogSequentialForward.fog[9].dispatcher remoteJobs 290
scalar FogSequentialForward.fog[9].dispatcher probeQueries 0
scalar FogSequentialForward.fog[9].dispatcher probeAnswers 0
scalar FogSequentialForward.fog[9].dispatcher droppedJobsSLA 0
scalar FogSequentialForward.fog[9].dispatcher jobs_class_1 3949
scalar FogSequentialForward.fog[9].dispatcher remoteJobs_class_1 290
scalar FogSequentialForward.fog[9].dispatcher localJobs_class_1 3659
scalar FogSequentialForward.fog[9].server[0] rho 0.56545424461365
scalar FogSequentialForward.fog[9].server[0] congestionRatio 0
scalar FogSequentialForward.fog[9].server[0] totalJobs 3659
scalar FogSequentialForward.fog[9].server[0] droppedJobsQueue 0
scalar FogSequentialForward.fog[9].server[0] droppedJobsTimout 0
scalar FogSequentialForward.fog[9].server[0] droppedJobsSLA 0
scalar FogSequentialForward.fog[9].server[0] droppedJobsTotal 0
scalar FogSequentialForward.fog[10].dispatcher localJobs 3618
scalar FogSequentialForward.fog[10].dispatcher internalJobs 3661
scalar FogSequentialForward.fog[10].dispatcher externalJobs 262
scalar FogSequentialForward.fog[10].dispatcher remoteJobs 305
scalar FogSequentialForward.fog[10].dispatcher probeQueries 0
scalar FogSequentialForward.fog[10].dispatcher probeAnswers 0
scalar FogSequentialForward.fog[10].dispatcher droppedJobsSLA 0
scalar FogSequentialForward.fog[10].dispatcher jobs_class_1 3923
scalar FogSequentialForward.fog[10].dispatcher remoteJobs_class_1 305
scalar FogSequentialForward.fog[10].dispatcher localJobs_class_1 3618
scalar FogSequentialForward.fog[10].server[0] rho 0.55923175811768
scalar FogSequentialForward.fog[10].server[0] congestionRatio 0
scalar FogSequentialForward.fog[10].server[0] totalJobs 3618
scalar FogSequentialForward.fog[10].server[0] droppedJobsQueue 0
scalar FogSequentialForward.fog[10].server[0] droppedJobsTimout 0
scalar FogSequentialForward.fog[10].server[0] droppedJobsSLA 0
scalar FogSequentialForward.fog[10].server[0] droppedJobsTotal 0
scalar FogSequentialForward.fog[11].dispatcher localJobs 3610
scalar FogSequentialForward.fog[11].dispatcher internalJobs 3604
scalar FogSequentialForward.fog[11].dispatcher externalJobs 280
scalar FogSequentialForward.fog[11].dispatcher remoteJobs 274
scalar FogSequentialForward.fog[11].dispatcher probeQueries 0
scalar FogSequentialForward.fog[11].dispatcher probeAnswers 0
scalar FogSequentialForward.fog[11].dispatcher droppedJobsSLA 0
scalar FogSequentialForward.fog[11].dispatcher jobs_class_1 3884
scalar FogSequentialForward.fog[11].dispatcher remoteJobs_class_1 274
scalar FogSequentialForward.fog[11].dispatcher localJobs_class_1 3610
scalar FogSequentialForward.fog[11].server[0] rho 0.55821460485458
scalar FogSequentialForward.fog[11].server[0] congestionRatio 0
scalar FogSequentialForward.fog[11].server[0] totalJobs 3610
scalar FogSequentialForward.fog[11].server[0] droppedJobsQueue 0
scalar FogSequentialForward.fog[11].server[0] droppedJobsTimout 0
scalar FogSequentialForward.fog[11].server[0] droppedJobsSLA 0
scalar FogSequentialForward.fog[11].server[0] droppedJobsTotal 0
scalar FogSequentialForward.fog[12].dispatcher localJobs 3581
scalar FogSequentialForward.fog[12].dispatcher internalJobs 3549
scalar FogSequentialForward.fog[12].dispatcher externalJobs 286
scalar FogSequentialForward.fog[12].dispatcher remoteJobs 254
scalar FogSequentialForward.fog[12].dispatcher probeQueries 0
scalar FogSequentialForward.fog[12].dispatcher probeAnswers 0
scalar FogSequentialForward.fog[12].dispatcher droppedJobsSLA 0
scalar FogSequentialForward.fog[12].dispatcher jobs_class_1 3835
scalar FogSequentialForward.fog[12].dispatcher remoteJobs_class_1 254
scalar FogSequentialForward.fog[12].dispatcher localJobs_class_1 3581
scalar FogSequentialForward.fog[12].server[0] rho 0.55338907241821
scalar FogSequentialForward.fog[12].server[0] congestionRatio 0
scalar FogSequentialForward.fog[12].server[0] totalJobs 3581
scalar FogSequentialForward.fog[12].server[0] droppedJobsQueue 0
scalar FogSequentialForward.fog[12].server[0] droppedJobsTimout 0
scalar FogSequentialForward.fog[12].server[0] droppedJobsSLA 0
scalar FogSequentialForward.fog[12].server[0] droppedJobsTotal 0
scalar FogSequentialForward.fog[13].dispatcher localJobs 3638
scalar FogSequentialForward.fog[13].dispatcher internalJobs 3616
scalar FogSequentialForward.fog[13].dispatcher externalJobs 311
scalar FogSequentialForward.fog[13].dispatcher remoteJobs 289
scalar FogSequentialForward.fog[13].dispatcher probeQueries 0
scalar FogSequentialForward.fog[13].dispatcher probeAnswers 0
scalar FogSequentialForward.fog[13].dispatcher droppedJobsSLA 0
scalar FogSequentialForward.fog[13].dispatcher jobs_class_1 3927
scalar FogSequentialForward.fog[13].dispatcher remoteJobs_class_1 289
scalar FogSequentialForward.fog[13].dispatcher localJobs_class_1 3638
scalar FogSequentialForward.fog[13].server[0] rho 0.56262910366058
scalar FogSequentialForward.fog[13].server[0] congestionRatio 0
scalar FogSequentialForward.fog[13].server[0] totalJobs 3638
scalar FogSequentialForward.fog[13].server[0] droppedJobsQueue 0
scalar FogSequentialForward.fog[13].server[0] droppedJobsTimout 0
scalar FogSequentialForward.fog[13].server[0] droppedJobsSLA 0
scalar FogSequentialForward.fog[13].server[0] droppedJobsTotal 0
scalar FogSequentialForward.fog[14].dispatcher localJobs 3649
scalar FogSequentialForward.fog[14].dispatcher internalJobs 3660
scalar FogSequentialForward.fog[14].dispatcher externalJobs 290
scalar FogSequentialForward.fog[14].dispatcher remoteJobs 301
scalar FogSequentialForward.fog[14].dispatcher probeQueries 0
scalar FogSequentialForward.fog[14].dispatcher probeAnswers 0
scalar FogSequentialForward.fog[14].dispatcher droppedJobsSLA 0
scalar FogSequentialForward.fog[14].dispatcher jobs_class_1 3950
scalar FogSequentialForward.fog[14].dispatcher remoteJobs_class_1 301
scalar FogSequentialForward.fog[14].dispatcher localJobs_class_1 3649
scalar FogSequentialForward.fog[14].server[0] rho 0.56412518024445
scalar FogSequentialForward.fog[14].server[0] congestionRatio 0
scalar FogSequentialForward.fog[14].server[0] totalJobs 3649
scalar FogSequentialForward.fog[14].server[0] droppedJobsQueue 0
scalar FogSequentialForward.fog[14].server[0] droppedJobsTimout 0
scalar FogSequentialForward.fog[14].server[0] droppedJobsSLA 0
scalar FogSequentialForward.fog[14].server[0] droppedJobsTotal 0
scalar FogSequentialForward.fog[15].dispatcher localJobs 3632
scalar FogSequentialForward.fog[15].dispatcher internalJobs 3636
scalar FogSequentialForward.fog[15].dispatcher externalJobs 274
scalar FogSequentialForward.fog[15].dispatcher remoteJobs 278
scalar FogSequentialForward.fog[15].dispatcher probeQueries 0
scalar FogSequentialForward.fog[15].dispatcher probeAnswers 0
scalar FogSequentialForward.fog[15].dispatcher droppedJobsSLA 0
scalar FogSequentialForward.fog[15].dispatcher jobs_class_1 3910
scalar FogSequentialForward.fog[15].dispatcher remoteJobs_class_1 278
scalar FogSequentialForward.fog[15].dispatcher localJobs_class_1 3632
scalar FogSequentialForward.fog[15].server[0] rho 0.56154179573059
scalar FogSequentialForward.fog[15].server[0] congestionRatio 0
scalar FogSequentialForward.fog[15].server[0] totalJobs 3632
scalar FogSequentialForward.fog[15].server[0] droppedJobsQueue 0
scalar FogSequentialForward.fog[15].server[0] droppedJobsTimout 0
scalar FogSequentialForward.fog[15].server[0] droppedJobsSLA 0
scalar FogSequentialForward.fog[15].server[0] droppedJobsTotal 0
scalar FogSequentialForward.fog[16].dispatcher localJobs 3644
scalar FogSequentialForward.fog[16].dispatcher internalJobs 3662
scalar FogSequentialForward.fog[16].dispatcher externalJobs 257
scalar FogSequentialForward.fog[16].dispatcher remoteJobs 275
scalar FogSequentialForward.fog[16].dispatcher probeQueries 0
scalar FogSequentialForward.fog[16].dispatcher probeAnswers 0
scalar FogSequentialForward.fog[16].dispatcher droppedJobsSLA 0
scalar FogSequentialForward.fog[16].dispatcher jobs_class_1 3919
scalar FogSequentialForward.fog[16].dispatcher remoteJobs_class_1 275
scalar FogSequentialForward.fog[16].dispatcher localJobs_class_1 3644
scalar FogSequentialForward.fog[16].server[0] rho 0.56309515237808
scalar FogSequentialForward.fog[16].server[0] congestionRatio 0
scalar FogSequentialForward.fog[16].server[0] totalJobs 3644
scalar FogSequentialForward.fog[16].server[0] droppedJobsQueue 0
scalar FogSequentialForward.fog[16].server[0] droppedJobsTimout 0
scalar FogSequentialForward.fog[16].server[0] droppedJobsSLA 0
scalar FogSequentialForward.fog[16].server[0] droppedJobsTotal 0
scalar FogSequentialForward.fog[17].dispatcher localJobs 3565
scalar FogSequentialForward.fog[17].dispatcher internalJobs 3579
scalar FogSequentialForward.fog[17].dispatcher externalJobs 293
scalar FogSequentialForward.fog[17].dispatcher remoteJobs 307
scalar FogSequentialForward.fog[17].dispatcher probeQueries 0
scalar FogSequentialForward.fog[17].dispatcher probeAnswers 0
scalar FogSequentialForward.fog[17].dispatcher droppedJobsSLA 0
scalar FogSequentialForward.fog[17].dispatcher jobs_class_1 3872
scalar FogSequentialForward.fog[17].dispatcher remoteJobs_class_1 307
scalar FogSequentialForward.fog[17].dispatcher localJobs_class_1 3565
scalar FogSequentialForward.fog[17].server[0] rho 0.55105489492416
scalar FogSequentialForward.fog[17].server[0] congestionRatio 0
scalar FogSequentialForward.fog[17].server[0] totalJobs 3565
scalar FogSequentialForward.fog[17].server[0] droppedJobsQueue 0
scalar FogSequentialForward.fog[17].server[0] droppedJobsTimout 0
scalar FogSequentialForward.fog[17].server[0] droppedJobsSLA 0
scalar FogSequentialForward.fog[17].server[0] droppedJobsTotal 0
scalar FogSequentialForward.fog[18].dispatcher localJobs 3706
scalar FogSequentialForward.fog[18].dispatcher internalJobs 3700
scalar FogSequentialForward.fog[18].dispatcher externalJobs 323
scalar FogSequentialForward.fog[18].dispatcher remoteJobs 317
scalar FogSequentialForward.fog[18].dispatcher probeQueries 0
scalar FogSequentialForward.fog[18].dispatcher probeAnswers 0
scalar FogSequentialForward.fog[18].dispatcher droppedJobsSLA 0
scalar FogSequentialForward.fog[18].dispatcher jobs_class_1 4023
scalar FogSequentialForward.fog[18].dispatcher remoteJobs_class_1 317
scalar FogSequentialForward.fog[18].dispatcher localJobs_class_1 3706
scalar FogSequentialForward.fog[18].server[0] rho 0.57266902923584
scalar FogSequentialForward.fog[18].server[0] congestionRatio 0
scalar FogSequentialForward.fog[18].server[0] totalJobs 3706
scalar FogSequentialForward.fog[18].server[0] droppedJobsQueue 0
scalar FogSequentialForward.fog[18].server[0] droppedJobsTimout 0
scalar FogSequentialForward.fog[18].server[0] droppedJobsSLA 0
scalar FogSequentialForward.fog[18].server[0] droppedJobsTotal 0
scalar FogSequentialForward.fog[19].dispatcher localJobs 3655
scalar FogSequentialForward.fog[19].dispatcher internalJobs 3648
scalar FogSequentialForward.fog[19].dispatcher externalJobs 298
scalar FogSequentialForward.fog[19].dispatcher remoteJobs 291
scalar FogSequentialForward.fog[19].dispatcher probeQueries 0
scalar FogSequentialForward.fog[19].dispatcher probeAnswers 0
scalar FogSequentialForward.fog[19].dispatcher droppedJobsSLA 0
scalar FogSequentialForward.fog[19].dispatcher jobs_class_1 3946
scalar FogSequentialForward.fog[19].dispatcher remoteJobs_class_1 291
scalar FogSequentialForward.fog[19].dispatcher localJobs_class_1 3655
scalar FogSequentialForward.fog[19].server[0] rho 0.56519639492035
scalar FogSequentialForward.fog[19].server[0] congestionRatio 0
scalar FogSequentialForward.fog[19].server[0] totalJobs 3655
scalar FogSequentialForward.fog[19].server[0] droppedJobsQueue 0
scalar FogSequentialForward.fog[19].server[0] droppedJobsTimout 0
scalar FogSequentialForward.fog[19].server[0] droppedJobsSLA 0
scalar FogSequentialForward.fog[19].server[0] droppedJobsTotal 0
scalar FogSequentialForward.fog[20].dispatcher localJobs 3563
scalar FogSequentialForward.fog[20].dispatcher internalJobs 3542
scalar FogSequentialForward.fog[20].dispatcher externalJobs 286
scalar FogSequentialForward.fog[20].dispatcher remoteJobs 265
scalar FogSequentialForward.fog[20].dispatcher probeQueries 0
scalar FogSequentialForward.fog[20].dispatcher probeAnswers 0
scalar FogSequentialForward.fog[20].dispatcher droppedJobsSLA 0
scalar FogSequentialForward.fog[20].dispatcher jobs_class_1 3828
scalar FogSequentialForward.fog[20].dispatcher remoteJobs_class_1 265
scalar FogSequentialForward.fog[20].dispatcher localJobs_class_1 3563
scalar FogSequentialForward.fog[20].server[0] rho 0.5508496761322
scalar FogSequentialForward.fog[20].server[0] congestionRatio 0
scalar FogSequentialForward.fog[20].server[0] totalJobs 3563
scalar FogSequentialForward.fog[20].server[0] droppedJobsQueue 0
scalar FogSequentialForward.fog[20].server[0] droppedJobsTimout 0
scalar FogSequentialForward.fog[20].server[0] droppedJobsSLA 0
scalar FogSequentialForward.fog[20].server[0] droppedJobsTotal 0
scalar FogSequentialForward.fog[21].dispatcher localJobs 3664
scalar FogSequentialForward.fog[21].dispatcher internalJobs 3690
scalar FogSequentialForward.fog[21].dispatcher externalJobs 283
scalar FogSequentialForward.fog[21].dispatcher remoteJobs 309
scalar FogSequentialForward.fog[21].dispatcher probeQueries 0
scalar FogSequentialForward.fog[21].dispatcher probeAnswers 0
scalar FogSequentialForward.fog[21].dispatcher droppedJobsSLA 0
scalar FogSequentialForward.fog[21].dispatcher jobs_class_1 3973
scalar FogSequentialForward.fog[21].dispatcher remoteJobs_class_1 309
scalar FogSequentialForward.fog[21].dispatcher localJobs_class_1 3664
scalar FogSequentialForward.fog[21].server[0] rho 0.56672596931458
scalar FogSequentialForward.fog[21].server[0] congestionRatio 0
scalar FogSequentialForward.fog[21].server[0] totalJobs 3664
scalar FogSequentialForward.fog[21].server[0] droppedJobsQueue 0
scalar FogSequentialForward.fog[21].server[0] droppedJobsTimout 0
scalar FogSequentialForward.fog[21].server[0] droppedJobsSLA 0
scalar FogSequentialForward.fog[21].server[0] droppedJobsTotal 0
scalar FogSequentialForward.fog[22].dispatcher localJobs 3631
scalar FogSequentialForward.fog[22].dispatcher internalJobs 3578
scalar FogSequentialForward.fog[22].dispatcher externalJobs 332
scalar FogSequentialForward.fog[22].dispatcher remoteJobs 279
scalar FogSequentialForward.fog[22].dispatcher probeQueries 0
scalar FogSequentialForward.fog[22].dispatcher probeAnswers 0
scalar FogSequentialForward.fog[22].dispatcher droppedJobsSLA 0
scalar FogSequentialForward.fog[22].dispatcher jobs_class_1 3910
scalar FogSequentialForward.fog[22].dispatcher remoteJobs_class_1 279
scalar FogSequentialForward.fog[22].dispatcher localJobs_class_1 3631
scalar FogSequentialForward.fog[22].server[0] rho 0.56140756607056
scalar FogSequentialForward.fog[22].server[0] congestionRatio 0
scalar FogSequentialForward.fog[22].server[0] totalJobs 3631
scalar FogSequentialForward.fog[22].server[0] droppedJobsQueue 0
scalar FogSequentialForward.fog[22].server[0] droppedJobsTimout 0
scalar FogSequentialForward.fog[22].server[0] droppedJobsSLA 0
scalar FogSequentialForward.fog[22].server[0] droppedJobsTotal 0
scalar FogSequentialForward.fog[23].dispatcher localJobs 3515
scalar FogSequentialForward.fog[23].dispatcher internalJobs 3496
scalar FogSequentialForward.fog[23].dispatcher externalJobs 293
scalar FogSequentialForward.fog[23].dispatcher remoteJobs 274
scalar FogSequentialForward.fog[23].dispatcher probeQueries 0
scalar FogSequentialForward.fog[23].dispatcher probeAnswers 0
scalar FogSequentialForward.fog[23].dispatcher droppedJobsSLA 0
scalar FogSequentialForward.fog[23].dispatcher jobs_class_1 3789
scalar FogSequentialForward.fog[23].dispatcher remoteJobs_class_1 274
scalar FogSequentialForward.fog[23].dispatcher localJobs_class_1 3515
scalar FogSequentialForward.fog[23].server[0] rho 0.54354023933411
scalar FogSequentialForward.fog[23].server[0] congestionRatio 0
scalar FogSequentialForward.fog[23].server[0] totalJobs 3515
scalar FogSequentialForward.fog[23].server[0] droppedJobsQueue 0
scalar FogSequentialForward.fog[23].server[0] droppedJobsTimout 0
scalar FogSequentialForward.fog[23].server[0] droppedJobsSLA 0
scalar FogSequentialForward.fog[23].server[0] droppedJobsTotal 0
scalar FogSequentialForward.fog[24].dispatcher localJobs 3658
scalar FogSequentialForward.fog[24].dispatcher internalJobs 3635
scalar FogSequentialForward.fog[24].dispatcher externalJobs 298
scalar FogSequentialForward.fog[24].dispatcher remoteJobs 275
scalar FogSequentialForward.fog[24].dispatcher probeQueries 0
scalar FogSequentialForward.fog[24].dispatcher probeAnswers 0
scalar FogSequentialForward.fog[24].dispatcher droppedJobsSLA 0
scalar FogSequentialForward.fog[24].dispatcher jobs_class_1 3933
scalar FogSequentialForward.fog[24].dispatcher remoteJobs_class_1 275
scalar FogSequentialForward.fog[24].dispatcher localJobs_class_1 3658
scalar FogSequentialForward.fog[24].server[0] rho 0.56560975313187
scalar FogSequentialForward.fog[24].server[0] congestionRatio 0
scalar FogSequentialForward.fog[24].server[0] totalJobs 3658
scalar FogSequentialForward.fog[24].server[0] droppedJobsQueue 0
scalar FogSequentialForward.fog[24].server[0] droppedJobsTimout 0
scalar FogSequentialForward.fog[24].server[0] droppedJobsSLA 0
scalar FogSequentialForward.fog[24].server[0] droppedJobsTotal 0
scalar FogSequentialForward.fog[25].dispatcher localJobs 3687
scalar FogSequentialForward.fog[25].dispatcher internalJobs 3761
scalar FogSequentialForward.fog[25].dispatcher externalJobs 270
scalar FogSequentialForward.fog[25].dispatcher remoteJobs 344
scalar FogSequentialForward.fog[25].dispatcher probeQueries 0
scalar FogSequentialForward.fog[25].dispatcher probeAnswers 0
scalar FogSequentialForward.fog[25].dispatcher droppedJobsSLA 0
scalar FogSequentialForward.fog[25].dispatcher jobs_class_1 4031
scalar FogSequentialForward.fog[25].dispatcher remoteJobs_class_1 344
scalar FogSequentialForward.fog[25].dispatcher localJobs_class_1 3687
scalar FogSequentialForward.fog[25].server[0] rho 0.57019537687302
scalar FogSequentialForward.fog[25].server[0] congestionRatio 0
scalar FogSequentialForward.fog[25].server[0] totalJobs 3687
scalar FogSequentialForward.fog[25].server[0] droppedJobsQueue 0
scalar FogSequentialForward.fog[25].server[0] droppedJobsTimout 0
scalar FogSequentialForward.fog[25].server[0] droppedJobsSLA 0
scalar FogSequentialForward.fog[25].server[0] droppedJobsTotal 0
scalar FogSequentialForward.fog[26].dispatcher localJobs 3739
scalar FogSequentialForward.fog[26].dispatcher internalJobs 3766
scalar FogSequentialForward.fog[26].dispatcher externalJobs 312
scalar FogSequentialForward.fog[26].dispatcher remoteJobs 339
scalar FogSequentialForward.fog[26].dispatcher probeQueries 0
scalar FogSequentialForward.fog[26].dispatcher probeAnswers 0
scalar FogSequentialForward.fog[26].dispatcher droppedJobsSLA 0
scalar FogSequentialForward.fog[26].dispatcher jobs_class_1 4078
scalar FogSequentialForward.fog[26].dispatcher remoteJobs_class_1 339
scalar FogSequentialForward.fog[26].dispatcher localJobs_class_1 3739
scalar FogSequentialForward.fog[26].server[0] rho 0.57831352949142
scalar FogSequentialForward.fog[26].server[0] congestionRatio 0
scalar FogSequentialForward.fog[26].server[0] totalJobs 3739
scalar FogSequentialForward.fog[26].server[0] droppedJobsQueue 0
scalar FogSequentialForward.fog[26].server[0] droppedJobsTimout 0
scalar FogSequentialForward.fog[26].server[0] droppedJobsSLA 0
scalar FogSequentialForward.fog[26].server[0] droppedJobsTotal 0
scalar FogSequentialForward.fog[27].dispatcher localJobs 3593
scalar FogSequentialForward.fog[27].dispatcher internalJobs 3574
scalar FogSequentialForward.fog[27].dispatcher externalJobs 306
scalar FogSequentialForward.fog[27].dispatcher remoteJobs 287
scalar FogSequentialForward.fog[27].dispatcher probeQueries 0
scalar FogSequentialForward.fog[27].dispatcher probeAnswers 0
scalar FogSequentialForward.fog[27].dispatcher droppedJobsSLA 0
scalar FogSequentialForward.fog[27].dispatcher jobs_class_1 3880
scalar FogSequentialForward.fog[27].dispatcher remoteJobs_class_1 287
scalar FogSequentialForward.fog[27].dispatcher localJobs_class_1 3593
scalar FogSequentialForward.fog[27].server[0] rho 0.55555009841919
scalar FogSequentialForward.fog[27].server[0] congestionRatio 0
scalar FogSequentialForward.fog[27].server[0] totalJobs 3593
scalar FogSequentialForward.fog[27].server[0] droppedJobsQueue 0
scalar FogSequentialForward.fog[27].server[0] droppedJobsTimout 0
scalar FogSequentialForward.fog[27].server[0] droppedJobsSLA 0
scalar FogSequentialForward.fog[27].server[0] droppedJobsTotal 0
scalar FogSequentialForward.fog[28].dispatcher localJobs 3583
scalar FogSequentialForward.fog[28].dispatcher internalJobs 3560
scalar FogSequentialForward.fog[28].dispatcher externalJobs 302
scalar FogSequentialForward.fog[28].dispatcher remoteJobs 279
scalar FogSequentialForward.fog[28].dispatcher probeQueries 0
scalar FogSequentialForward.fog[28].dispatcher probeAnswers 0
scalar FogSequentialForward.fog[28].dispatcher droppedJobsSLA 0
scalar FogSequentialForward.fog[28].dispatcher jobs_class_1 3862
scalar FogSequentialForward.fog[28].dispatcher remoteJobs_class_1 279
scalar FogSequentialForward.fog[28].dispatcher localJobs_class_1 3583
scalar FogSequentialForward.fog[28].server[0] rho 0.55363231897354
scalar FogSequentialForward.fog[28].server[0] congestionRatio 0
scalar FogSequentialForward.fog[28].server[0] totalJobs 3583
scalar FogSequentialForward.fog[28].server[0] droppedJobsQueue 0
scalar FogSequentialForward.fog[28].server[0] droppedJobsTimout 0
scalar FogSequentialForward.fog[28].server[0] droppedJobsSLA 0
scalar FogSequentialForward.fog[28].server[0] droppedJobsTotal 0
scalar FogSequentialForward.fog[29].dispatcher localJobs 3620
scalar FogSequentialForward.fog[29].dispatcher internalJobs 3638
scalar FogSequentialForward.fog[29].dispatcher externalJobs 270
scalar FogSequentialForward.fog[29].dispatcher remoteJobs 288
scalar FogSequentialForward.fog[29].dispatcher probeQueries 0
scalar FogSequentialForward.fog[29].dispatcher probeAnswers 0
scalar FogSequentialForward.fog[29].dispatcher droppedJobsSLA 0
scalar FogSequentialForward.fog[29].dispatcher jobs_class_1 3908
scalar FogSequentialForward.fog[29].dispatcher remoteJobs_class_1 288
scalar FogSequentialForward.fog[29].dispatcher localJobs_class_1 3620
scalar FogSequentialForward.fog[29].server[0] rho 0.55986189842224
scalar FogSequentialForward.fog[29].server[0] congestionRatio 0
scalar FogSequentialForward.fog[29].server[0] totalJobs 3620
scalar FogSequentialForward.fog[29].server[0] droppedJobsQueue 0
scalar FogSequentialForward.fog[29].server[0] droppedJobsTimout 0
scalar FogSequentialForward.fog[29].server[0] droppedJobsSLA 0
scalar FogSequentialForward.fog[29].server[0] droppedJobsTotal 0
scalar FogSequentialForward.fog[30].dispatcher localJobs 3581
scalar FogSequentialForward.fog[30].dispatcher internalJobs 3552
scalar FogSequentialForward.fog[30].dispatcher externalJobs 295
scalar FogSequentialForward.fog[30].dispatcher remoteJobs 266
scalar FogSequentialForward.fog[30].dispatcher probeQueries 0
scalar FogSequentialForward.fog[30].dispatcher probeAnswers 0
scalar FogSequentialForward.fog[30].dispatcher droppedJobsSLA 0
scalar FogSequentialForward.fog[30].dispatcher jobs_class_1 3847
scalar FogSequentialForward.fog[30].dispatcher remoteJobs_class_1 266
scalar FogSequentialForward.fog[30].dispatcher localJobs_class_1 3581
scalar FogSequentialForward.fog[30].server[0] rho 0.55347740650177
scalar FogSequentialForward.fog[30].server[0] congestionRatio 0
scalar FogSequentialForward.fog[30].server[0] totalJobs 3581
scalar FogSequentialForward.fog[30].server[0] droppedJobsQueue 0
scalar FogSequentialForward.fog[30].server[0] droppedJobsTimout 0
scalar FogSequentialForward.fog[30].server[0] droppedJobsSLA 0
scalar FogSequentialForward.fog[30].server[0] droppedJobsTotal 0
scalar FogSequentialForward.fog[31].dispatcher localJobs 3677
scalar FogSequentialForward.fog[31].dispatcher internalJobs 3719
scalar FogSequentialForward.fog[31].dispatcher externalJobs 266
scalar FogSequentialForward.fog[31].dispatcher remoteJobs 308
scalar FogSequentialForward.fog[31].dispatcher probeQueries 0
scalar FogSequentialForward.fog[31].dispatcher probeAnswers 0
scalar FogSequentialForward.fog[31].dispatcher droppedJobsSLA 0
scalar FogSequentialForward.fog[31].dispatcher jobs_class_1 3985
scalar FogSequentialForward.fog[31].dispatcher remoteJobs_class_1 308
scalar FogSequentialForward.fog[31].dispatcher localJobs_class_1 3677
scalar FogSequentialForward.fog[31].server[0] rho 0.56840240955353
scalar FogSequentialForward.fog[31].server[0] congestionRatio 0
scalar FogSequentialForward.fog[31].server[0] totalJobs 3677
scalar FogSequentialForward.fog[31].server[0] droppedJobsQueue 0
scalar FogSequentialForward.fog[31].server[0] droppedJobsTimout 0
scalar FogSequentialForward.fog[31].server[0] droppedJobsSLA 0
scalar FogSequentialForward.fog[31].server[0] droppedJobsTotal 0
scalar FogSequentialForward.fog[32].dispatcher localJobs 3526
scalar FogSequentialForward.fog[32].dispatcher internalJobs 3516
scalar FogSequentialForward.fog[32].dispatcher externalJobs 292
scalar FogSequentialForward.fog[32].dispatcher remoteJobs 282
scalar FogSequentialForward.fog[32].dispatcher probeQueries 0
scalar FogSequentialForward.fog[32].dispatcher probeAnswers 0
scalar FogSequentialForward.fog[32].dispatcher droppedJobsSLA 0
scalar FogSequentialForward.fog[32].dispatcher jobs_class_1 3808
scalar FogSequentialForward.fog[32].dispatcher remoteJobs_class_1 282
scalar FogSequentialForward.fog[32].dispatcher localJobs_class_1 3526
scalar FogSequentialForward.fog[32].server[0] rho 0.54499942064285
scalar FogSequentialForward.fog[32].server[0] congestionRatio 0
scalar FogSequentialForward.fog[32].server[0] totalJobs 3526
scalar FogSequentialForward.fog[32].server[0] droppedJobsQueue 0
scalar FogSequentialForward.fog[32].server[0] droppedJobsTimout 0
scalar FogSequentialForward.fog[32].server[0] droppedJobsSLA 0
scalar FogSequentialForward.fog[32].server[0] droppedJobsTotal 0
scalar FogSequentialForward.fog[33].dispatcher localJobs 3660
scalar FogSequentialForward.fog[33].dispatcher internalJobs 3705
scalar FogSequentialForward.fog[33].dispatcher externalJobs 300
scalar FogSequentialForward.fog[33].dispatcher remoteJobs 345
scalar FogSequentialForward.fog[33].dispatcher probeQueries 0
scalar FogSequentialForward.fog[33].dispatcher probeAnswers 0
scalar FogSequentialForward.fog[33].dispatcher droppedJobsSLA 0
scalar FogSequentialForward.fog[33].dispatcher jobs_class_1 4005
scalar FogSequentialForward.fog[33].dispatcher remoteJobs_class_1 345
scalar FogSequentialForward.fog[33].dispatcher localJobs_class_1 3660
scalar FogSequentialForward.fog[33].server[0] rho 0.56608891487122
scalar FogSequentialForward.fog[33].server[0] congestionRatio 0
scalar FogSequentialForward.fog[33].server[0] totalJobs 3660
scalar FogSequentialForward.fog[33].server[0] droppedJobsQueue 0
scalar FogSequentialForward.fog[33].server[0] droppedJobsTimout 0
scalar FogSequentialForward.fog[33].server[0] droppedJobsSLA 0
scalar FogSequentialForward.fog[33].server[0] droppedJobsTotal 0
scalar FogSequentialForward.fog[34].dispatcher localJobs 3529
scalar FogSequentialForward.fog[34].dispatcher internalJobs 3511
scalar FogSequentialForward.fog[34].dispatcher externalJobs 278
scalar FogSequentialForward.fog[34].dispatcher remoteJobs 260
scalar FogSequentialForward.fog[34].dispatcher probeQueries 0
scalar FogSequentialForward.fog[34].dispatcher probeAnswers 0
scalar FogSequentialForward.fog[34].dispatcher droppedJobsSLA 0
scalar FogSequentialForward.fog[34].dispatcher jobs_class_1 3789
scalar FogSequentialForward.fog[34].dispatcher remoteJobs_class_1 260
scalar FogSequentialForward.fog[34].dispatcher localJobs_class_1 3529
scalar FogSequentialForward.fog[34].server[0] rho 0.5456959605217
scalar FogSequentialForward.fog[34].server[0] congestionRatio 0
scalar FogSequentialForward.fog[34].server[0] totalJobs 3529
scalar FogSequentialForward.fog[34].server[0] droppedJobsQueue 0
scalar FogSequentialForward.fog[34].server[0] droppedJobsTimout 0
scalar FogSequentialForward.fog[34].server[0] droppedJobsSLA 0
scalar FogSequentialForward.fog[34].server[0] droppedJobsTotal 0
scalar FogSequentialForward.fog[35].dispatcher localJobs 3636
scalar FogSequentialForward.fog[35].dispatcher internalJobs 3648
scalar FogSequentialForward.fog[35].dispatcher externalJobs 307
scalar FogSequentialForward.fog[35].dispatcher remoteJobs 319
scalar FogSequentialForward.fog[35].dispatcher probeQueries 0
scalar FogSequentialForward.fog[35].dispatcher probeAnswers 0
scalar FogSequentialForward.fog[35].dispatcher droppedJobsSLA 0
scalar FogSequentialForward.fog[35].dispatcher jobs_class_1 3955
scalar FogSequentialForward.fog[35].dispatcher remoteJobs_class_1 319
scalar FogSequentialForward.fog[35].dispatcher localJobs_class_1 3636
scalar FogSequentialForward.fog[35].server[0] rho 0.56235462427139
scalar FogSequentialForward.fog[35].server[0] congestionRatio 0
scalar FogSequentialForward.fog[35].server[0] totalJobs 3636
scalar FogSequentialForward.fog[35].server[0] droppedJobsQueue 0
scalar FogSequentialForward.fog[35].server[0] droppedJobsTimout 0
scalar FogSequentialForward.fog[35].server[0] droppedJobsSLA 0
scalar FogSequentialForward.fog[35].server[0] droppedJobsTotal 0
scalar FogSequentialForward.fog[36].dispatcher localJobs 3636
scalar FogSequentialForward.fog[36].dispatcher internalJobs 3600
scalar FogSequentialForward.fog[36].dispatcher externalJobs 291
scalar FogSequentialForward.fog[36].dispatcher remoteJobs 255
scalar FogSequentialForward.fog[36].dispatcher probeQueries 0
scalar FogSequentialForward.fog[36].dispatcher probeAnswers 0
scalar FogSequentialForward.fog[36].dispatcher droppedJobsSLA 0
scalar FogSequentialForward.fog[36].dispatcher jobs_class_1 3891
scalar FogSequentialForward.fog[36].dispatcher remoteJobs_class_1 255
scalar FogSequentialForward.fog[36].dispatcher localJobs_class_1 3636
scalar FogSequentialForward.fog[36].server[0] rho 0.56221175193787
scalar FogSequentialForward.fog[36].server[0] congestionRatio 0
scalar FogSequentialForward.fog[36].server[0] totalJobs 3636
scalar FogSequentialForward.fog[36].server[0] droppedJobsQueue 0
scalar FogSequentialForward.fog[36].server[0] droppedJobsTimout 0
scalar FogSequentialForward.fog[36].server[0] droppedJobsSLA 0
scalar FogSequentialForward.fog[36].server[0] droppedJobsTotal 0
scalar FogSequentialForward.fog[37].dispatcher localJobs 3699
scalar FogSequentialForward.fog[37].dispatcher internalJobs 3710
scalar FogSequentialForward.fog[37].dispatcher externalJobs 292
scalar FogSequentialForward.fog[37].dispatcher remoteJobs 303
scalar FogSequentialForward.fog[37].dispatcher probeQueries 0
scalar FogSequentialForward.fog[37].dispatcher probeAnswers 0
scalar FogSequentialForward.fog[37].dispatcher droppedJobsSLA 0
scalar FogSequentialForward.fog[37].dispatcher jobs_class_1 4002
scalar FogSequentialForward.fog[37].dispatcher remoteJobs_class_1 303
scalar FogSequentialForward.fog[37].dispatcher localJobs_class_1 3699
scalar FogSequentialForward.fog[37].server[0] rho 0.57206165790558
scalar FogSequentialForward.fog[37].server[0] congestionRatio 0
scalar FogSequentialForward.fog[37].server[0] totalJobs 3699
scalar FogSequentialForward.fog[37].server[0] droppedJobsQueue 0
scalar FogSequentialForward.fog[37].server[0] droppedJobsTimout 0
scalar FogSequentialForward.fog[37].server[0] droppedJobsSLA 0
scalar FogSequentialForward.fog[37].server[0] droppedJobsTotal 0
scalar FogSequentialForward.fog[38].dispatcher localJobs 3692
scalar FogSequentialForward.fog[38].dispatcher internalJobs 3664
scalar FogSequentialForward.fog[38].dispatcher externalJobs 309
scalar FogSequentialForward.fog[38].dispatcher remoteJobs 281
scalar FogSequentialForward.fog[38].dispatcher probeQueries 0
scalar FogSequentialForward.fog[38].dispatcher probeAnswers 0
scalar FogSequentialForward.fog[38].dispatcher droppedJobsSLA 0
scalar FogSequentialForward.fog[38].dispatcher jobs_class_1 3973
scalar FogSequentialForward.fog[38].dispatcher remoteJobs_class_1 281
scalar FogSequentialForward.fog[38].dispatcher localJobs_class_1 3692
scalar FogSequentialForward.fog[38].server[0] rho 0.57097548246384
scalar FogSequentialForward.fog[38].server[0] congestionRatio 0
scalar FogSequentialForward.fog[38].server[0] totalJobs 3692
scalar FogSequentialForward.fog[38].server[0] droppedJobsQueue 0
scalar FogSequentialForward.fog[38].server[0] droppedJobsTimout 0
scalar FogSequentialForward.fog[38].server[0] droppedJobsSLA 0
scalar FogSequentialForward.fog[38].server[0] droppedJobsTotal 0
scalar FogSequentialForward.fog[39].dispatcher localJobs 3637
scalar FogSequentialForward.fog[39].dispatcher internalJobs 3663
scalar FogSequentialForward.fog[39].dispatcher externalJobs 297
scalar FogSequentialForward.fog[39].dispatcher remoteJobs 323
scalar FogSequentialForward.fog[39].dispatcher probeQueries 0
scalar FogSequentialForward.fog[39].dispatcher probeAnswers 0
scalar FogSequentialForward.fog[39].dispatcher droppedJobsSLA 0
scalar FogSequentialForward.fog[39].dispatcher jobs_class_1 3960
scalar FogSequentialForward.fog[39].dispatcher remoteJobs_class_1 323
scalar FogSequentialForward.fog[39].dispatcher localJobs_class_1 3637
scalar FogSequentialForward.fog[39].server[0] rho 0.56233328580856
scalar FogSequentialForward.fog[39].server[0] congestionRatio 0
scalar FogSequentialForward.fog[39].server[0] totalJobs 3637
scalar FogSequentialForward.fog[39].server[0] droppedJobsQueue 0
scalar FogSequentialForward.fog[39].server[0] droppedJobsTimout 0
scalar FogSequentialForward.fog[39].server[0] droppedJobsSLA 0
scalar FogSequentialForward.fog[39].server[0] droppedJobsTotal 0
scalar FogSequentialForward.fog[40].dispatcher localJobs 3605
scalar FogSequentialForward.fog[40].dispatcher internalJobs 3587
scalar FogSequentialForward.fog[40].dispatcher externalJobs 286
scalar FogSequentialForward.fog[40].dispatcher remoteJobs 268
scalar FogSequentialForward.fog[40].dispatcher probeQueries 0
scalar FogSequentialForward.fog[40].dispatcher probeAnswers 0
scalar FogSequentialForward.fog[40].dispatcher droppedJobsSLA 0
scalar FogSequentialForward.fog[40].dispatcher jobs_class_1 3873
scalar FogSequentialForward.fog[40].dispatcher remoteJobs_class_1 268
scalar FogSequentialForward.fog[40].dispatcher localJobs_class_1 3605
scalar FogSequentialForward.fog[40].server[0] rho 0.55762666463852
scalar FogSequentialForward.fog[40].server[0] congestionRatio 0
scalar FogSequentialForward.fog[40].server[0] totalJobs 3605
scalar FogSequentialForward.fog[40].server[0] droppedJobsQueue 0
scalar FogSequentialForward.fog[40].server[0] droppedJobsTimout 0
scalar FogSequentialForward.fog[40].server[0] droppedJobsSLA 0
scalar FogSequentialForward.fog[40].server[0] droppedJobsTotal 0
scalar FogSequentialForward.fog[41].dispatcher localJobs 3658
scalar FogSequentialForward.fog[41].dispatcher internalJobs 3637
scalar FogSequentialForward.fog[41].dispatcher externalJobs 309
scalar FogSequentialForward.fog[41].dispatcher remoteJobs 288
scalar FogSequentialForward.fog[41].dispatcher probeQueries 0
scalar FogSequentialForward.fog[41].dispatcher probeAnswers 0
scalar FogSequentialForward.fog[41].dispatcher droppedJobsSLA 0
scalar FogSequentialForward.fog[41].dispatcher jobs_class_1 3946
scalar FogSequentialForward.fog[41].dispatcher remoteJobs_class_1 288
scalar FogSequentialForward.fog[41].dispatcher localJobs_class_1 3658
scalar FogSequentialForward.fog[41].server[0] rho 0.56552416086197
scalar FogSequentialForward.fog[41].server[0] congestionRatio 0
scalar FogSequentialForward.fog[41].server[0] totalJobs 3658
scalar FogSequentialForward.fog[41].server[0] droppedJobsQueue 0
scalar FogSequentialForward.fog[41].server[0] droppedJobsTimout 0
scalar FogSequentialForward.fog[41].server[0] droppedJobsSLA 0
scalar FogSequentialForward.fog[41].server[0] droppedJobsTotal 0
scalar FogSequentialForward.fog[42].dispatcher localJobs 3577
scalar FogSequentialForward.fog[42].dispatcher internalJobs 3553
scalar FogSequentialForward.fog[42].dispatcher externalJobs 286
scalar FogSequentialForward.fog[42].dispatcher remoteJobs 262
scalar FogSequentialForward.fog[42].dispatcher probeQueries 0
scalar FogSequentialForward.fog[42].dispatcher probeAnswers 0
scalar FogSequentialForward.fog[42].dispatcher droppedJobsSLA 0
scalar FogSequentialForward.fog[42].dispatcher jobs_class_1 3839
scalar FogSequentialForward.fog[42].dispatcher remoteJobs_class_1 262
scalar FogSequentialForward.fog[42].dispatcher localJobs_class_1 3577
scalar FogSequentialForward.fog[42].server[0] rho 0.55304205417633
scalar FogSequentialForward.fog[42].server[0] congestionRatio 0
scalar FogSequentialForward.fog[42].server[0] totalJobs 3577
scalar FogSequentialForward.fog[42].server[0] droppedJobsQueue 0
scalar FogSequentialForward.fog[42].server[0] droppedJobsTimout 0
scalar FogSequentialForward.fog[42].server[0] droppedJobsSLA 0
scalar FogSequentialForward.fog[42].server[0] droppedJobsTotal 0
scalar FogSequentialForward.fog[43].dispatcher localJobs 3560
scalar FogSequentialForward.fog[43].dispatcher internalJobs 3585
scalar FogSequentialForward.fog[43].dispatcher externalJobs 267
scalar FogSequentialForward.fog[43].dispatcher remoteJobs 292
scalar FogSequentialForward.fog[43].dispatcher probeQueries 0
scalar FogSequentialForward.fog[43].dispatcher probeAnswers 0
scalar FogSequentialForward.fog[43].dispatcher droppedJobsSLA 0
scalar FogSequentialForward.fog[43].dispatcher jobs_class_1 3852
scalar FogSequentialForward.fog[43].dispatcher remoteJobs_class_1 292
scalar FogSequentialForward.fog[43].dispatcher localJobs_class_1 3560
scalar FogSequentialForward.fog[43].server[0] rho 0.55057549476624
scalar FogSequentialForward.fog[43].server[0] congestionRatio 0
scalar FogSequentialForward.fog[43].server[0] totalJobs 3560
scalar FogSequentialForward.fog[43].server[0] droppedJobsQueue 0
scalar FogSequentialForward.fog[43].server[0] droppedJobsTimout 0
scalar FogSequentialForward.fog[43].server[0] droppedJobsSLA 0
scalar FogSequentialForward.fog[43].server[0] droppedJobsTotal 0
scalar FogSequentialForward.fog[44].dispatcher localJobs 3644
scalar FogSequentialForward.fog[44].dispatcher internalJobs 3616
scalar FogSequentialForward.fog[44].dispatcher externalJobs 298
scalar FogSequentialForward.fog[44].dispatcher remoteJobs 270
scalar FogSequentialForward.fog[44].dispatcher probeQueries 0
scalar FogSequentialForward.fog[44].dispatcher probeAnswers 0
scalar FogSequentialForward.fog[44].dispatcher droppedJobsSLA 0
scalar FogSequentialForward.fog[44].dispatcher jobs_class_1 3914
scalar FogSequentialForward.fog[44].dispatcher remoteJobs_class_1 270
scalar FogSequentialForward.fog[44].dispatcher localJobs_class_1 3644
scalar FogSequentialForward.fog[44].server[0] rho 0.56344932317734
scalar FogSequentialForward.fog[44].server[0] congestionRatio 0
scalar FogSequentialForward.fog[44].server[0] totalJobs 3644
scalar FogSequentialForward.fog[44].server[0] droppedJobsQueue 0
scalar FogSequentialForward.fog[44].server[0] droppedJobsTimout 0
scalar FogSequentialForward.fog[44].server[0] droppedJobsSLA 0
scalar FogSequentialForward.fog[44].server[0] droppedJobsTotal 0
scalar FogSequentialForward.fog[45].dispatcher localJobs 3642
scalar FogSequentialForward.fog[45].dispatcher internalJobs 3647
scalar FogSequentialForward.fog[45].dispatcher externalJobs 299
scalar FogSequentialForward.fog[45].dispatcher remoteJobs 304
scalar FogSequentialForward.fog[45].dispatcher probeQueries 0
scalar FogSequentialForward.fog[45].dispatcher probeAnswers 0
scalar FogSequentialForward.fog[45].dispatcher droppedJobsSLA 0
scalar FogSequentialForward.fog[45].dispatcher jobs_class_1 3946
scalar FogSequentialForward.fog[45].dispatcher remoteJobs_class_1 304
scalar FogSequentialForward.fog[45].dispatcher localJobs_class_1 3642
scalar FogSequentialForward.fog[45].server[0] rho 0.56311506032944
scalar FogSequentialForward.fog[45].server[0] congestionRatio 0
scalar FogSequentialForward.fog[45].server[0] totalJobs 3642
scalar FogSequentialForward.fog[45].server[0] droppedJobsQueue 0
scalar FogSequentialForward.fog[45].server[0] droppedJobsTimout 0
scalar FogSequentialForward.fog[45].server[0] droppedJobsSLA 0
scalar FogSequentialForward.fog[45].server[0] droppedJobsTotal 0
scalar FogSequentialForward.fog[46].dispatcher localJobs 3609
scalar FogSequentialForward.fog[46].dispatcher internalJobs 3653
scalar FogSequentialForward.fog[46].dispatcher externalJobs 290
scalar FogSequentialForward.fog[46].dispatcher remoteJobs 334
scalar FogSequentialForward.fog[46].dispatcher probeQueries 0
scalar FogSequentialForward.fog[46].dispatcher probeAnswers 0
scalar FogSequentialForward.fog[46].dispatcher droppedJobsSLA 0
scalar FogSequentialForward.fog[46].dispatcher jobs_class_1 3943
scalar FogSequentialForward.fog[46].dispatcher remoteJobs_class_1 334
scalar FogSequentialForward.fog[46].dispatcher localJobs_class_1 3609
scalar FogSequentialForward.fog[46].server[0] rho 0.55809992551804
scalar FogSequentialForward.fog[46].server[0] congestionRatio 0
scalar FogSequentialForward.fog[46].server[0] totalJobs 3609
scalar FogSequentialForward.fog[46].server[0] droppedJobsQueue 0
scalar FogSequentialForward.fog[46].server[0] droppedJobsTimout 0
scalar FogSequentialForward.fog[46].server[0] droppedJobsSLA 0
scalar FogSequentialForward.fog[46].server[0] droppedJobsTotal 0
scalar FogSequentialForward.fog[47].dispatcher localJobs 3722
scalar FogSequentialForward.fog[47].dispatcher internalJobs 3744
scalar FogSequentialForward.fog[47].dispatcher externalJobs 249
scalar FogSequentialForward.fog[47].dispatcher remoteJobs 271
scalar FogSequentialForward.fog[47].dispatcher probeQueries 0
scalar FogSequentialForward.fog[47].dispatcher probeAnswers 0
scalar FogSequentialForward.fog[47].dispatcher droppedJobsSLA 0
scalar FogSequentialForward.fog[47].dispatcher jobs_class_1 3993
scalar FogSequentialForward.fog[47].dispatcher remoteJobs_class_1 271
scalar FogSequentialForward.fog[47].dispatcher localJobs_class_1 3722
scalar FogSequentialForward.fog[47].server[0] rho 0.57597553730011
scalar FogSequentialForward.fog[47].server[0] congestionRatio 0
scalar FogSequentialForward.fog[47].server[0] totalJobs 3722
scalar FogSequentialForward.fog[47].server[0] droppedJobsQueue 0
scalar FogSequentialForward.fog[47].server[0] droppedJobsTimout 0
scalar FogSequentialForward.fog[47].server[0] droppedJobsSLA 0
scalar FogSequentialForward.fog[47].server[0] droppedJobsTotal 0
scalar FogSequentialForward.fog[48].dispatcher localJobs 3630
scalar FogSequentialForward.fog[48].dispatcher internalJobs 3647
scalar FogSequentialForward.fog[48].dispatcher externalJobs 284
scalar FogSequentialForward.fog[48].dispatcher remoteJobs 301
scalar FogSequentialForward.fog[48].dispatcher probeQueries 0
scalar FogSequentialForward.fog[48].dispatcher probeAnswers 0
scalar FogSequentialForward.fog[48].dispatcher droppedJobsSLA 0
scalar FogSequentialForward.fog[48].dispatcher jobs_class_1 3931
scalar FogSequentialForward.fog[48].dispatcher remoteJobs_class_1 301
scalar FogSequentialForward.fog[48].dispatcher localJobs_class_1 3630
scalar FogSequentialForward.fog[48].server[0] rho 0.56097048521042
scalar FogSequentialForward.fog[48].server[0] congestionRatio 0
scalar FogSequentialForward.fog[48].server[0] totalJobs 3630
scalar FogSequentialForward.fog[48].server[0] droppedJobsQueue 0
scalar FogSequentialForward.fog[48].server[0] droppedJobsTimout 0
scalar FogSequentialForward.fog[48].server[0] droppedJobsSLA 0
scalar FogSequentialForward.fog[48].server[0] droppedJobsTotal 0
scalar FogSequentialForward.fog[49].dispatcher localJobs 3550
scalar FogSequentialForward.fog[49].dispatcher internalJobs 3526
scalar FogSequentialForward.fog[49].dispatcher externalJobs 282
scalar FogSequentialForward.fog[49].dispatcher remoteJobs 258
scalar FogSequentialForward.fog[49].dispatcher probeQueries 0
scalar FogSequentialForward.fog[49].dispatcher probeAnswers 0
scalar FogSequentialForward.fog[49].dispatcher droppedJobsSLA 0
scalar FogSequentialForward.fog[49].dispatcher jobs_class_1 3808
scalar FogSequentialForward.fog[49].dispatcher remoteJobs_class_1 258
scalar FogSequentialForward.fog[49].dispatcher localJobs_class_1 3550
scalar FogSequentialForward.fog[49].server[0] rho 0.54869896173477
scalar FogSequentialForward.fog[49].server[0] congestionRatio 0
scalar FogSequentialForward.fog[49].server[0] totalJobs 3550
scalar FogSequentialForward.fog[49].server[0] droppedJobsQueue 0
scalar FogSequentialForward.fog[49].server[0] droppedJobsTimout 0
scalar FogSequentialForward.fog[49].server[0] droppedJobsSLA 0
scalar FogSequentialForward.fog[49].server[0] droppedJobsTotal 0
scalar FogSequentialForward.fog[50].dispatcher localJobs 3704
scalar FogSequentialForward.fog[50].dispatcher internalJobs 3692
scalar FogSequentialForward.fog[50].dispatcher externalJobs 294
scalar FogSequentialForward.fog[50].dispatcher remoteJobs 282
scalar FogSequentialForward.fog[50].dispatcher probeQueries 0
scalar FogSequentialForward.fog[50].dispatcher probeAnswers 0
scalar FogSequentialForward.fog[50].dispatcher droppedJobsSLA 0
scalar FogSequentialForward.fog[50].dispatcher jobs_class_1 3986
scalar FogSequentialForward.fog[50].dispatcher remoteJobs_class_1 282
scalar FogSequentialForward.fog[50].dispatcher localJobs_class_1 3704
scalar FogSequentialForward.fog[50].server[0] rho 0.57275933027267
scalar FogSequentialForward.fog[50].server[0] congestionRatio 0
scalar FogSequentialForward.fog[50].server[0] totalJobs 3704
scalar FogSequentialForward.fog[50].server[0] droppedJobsQueue 0
scalar FogSequentialForward.fog[50].server[0] droppedJobsTimout 0
scalar FogSequentialForward.fog[50].server[0] droppedJobsSLA 0
scalar FogSequentialForward.fog[50].server[0] droppedJobsTotal 0
scalar FogSequentialForward.fog[51].dispatcher localJobs 3671
scalar FogSequentialForward.fog[51].dispatcher internalJobs 3676
scalar FogSequentialForward.fog[51].dispatcher externalJobs 274
scalar FogSequentialForward.fog[51].dispatcher remoteJobs 279
scalar FogSequentialForward.fog[51].dispatcher probeQueries 0
scalar FogSequentialForward.fog[51].dispatcher probeAnswers 0
scalar FogSequentialForward.fog[51].dispatcher droppedJobsSLA 0
scalar FogSequentialForward.fog[51].dispatcher jobs_class_1 3950
scalar FogSequentialForward.fog[51].dispatcher remoteJobs_class_1 279
scalar FogSequentialForward.fog[51].dispatcher localJobs_class_1 3671
scalar FogSequentialForward.fog[51].server[0] rho 0.567626953125
scalar FogSequentialForward.fog[51].server[0] congestionRatio 0
scalar FogSequentialForward.fog[51].server[0] totalJobs 3671
scalar FogSequentialForward.fog[51].server[0] droppedJobsQueue 0
scalar FogSequentialForward.fog[51].server[0] droppedJobsTimout 0
scalar FogSequentialForward.fog[51].server[0] droppedJobsSLA 0
scalar FogSequentialForward.fog[51].server[0] droppedJobsTotal 0
scalar FogSequentialForward.fog[52].dispatcher localJobs 3614
scalar FogSequentialForward.fog[52].dispatcher internalJobs 3615
scalar FogSequentialForward.fog[52].dispatcher externalJobs 261
scalar FogSequentialForward.fog[52].dispatcher remoteJobs 262
scalar FogSequentialForward.fog[52].dispatcher probeQueries 0
scalar FogSequentialForward.fog[52].dispatcher probeAnswers 0
scalar FogSequentialForward.fog[52].dispatcher droppedJobsSLA 0
scalar FogSequentialForward.fog[52].dispatcher jobs_class_1 3876
scalar FogSequentialForward.fog[52].dispatcher remoteJobs_class_1 262
scalar FogSequentialForward.fog[52].dispatcher localJobs_class_1 3614
scalar FogSequentialForward.fog[52].server[0] rho 0.55859351158142
scalar FogSequentialForward.fog[52].server[0] congestionRatio 0
scalar FogSequentialForward.fog[52].server[0] totalJobs 3614
scalar FogSequentialForward.fog[52].server[0] droppedJobsQueue 0
scalar FogSequentialForward.fog[52].server[0] droppedJobsTimout 0
scalar FogSequentialForward.fog[52].server[0] droppedJobsSLA 0
scalar FogSequentialForward.fog[52].server[0] droppedJobsTotal 0
scalar FogSequentialForward.fog[53].dispatcher localJobs 3767
scalar FogSequentialForward.fog[53].dispatcher internalJobs 3767
scalar FogSequentialForward.fog[53].dispatcher externalJobs 309
scalar FogSequentialForward.fog[53].dispatcher remoteJobs 309
scalar FogSequentialForward.fog[53].dispatcher probeQueries 0
scalar FogSequentialForward.fog[53].dispatcher probeAnswers 0
scalar FogSequentialForward.fog[53].dispatcher droppedJobsSLA 0
scalar FogSequentialForward.fog[53].dispatcher jobs_class_1 4076
scalar FogSequentialForward.fog[53].dispatcher remoteJobs_class_1 309
scalar FogSequentialForward.fog[53].dispatcher localJobs_class_1 3767
scalar FogSequentialForward.fog[53].server[0] rho 0.58257621526718
scalar FogSequentialForward.fog[53].server[0] congestionRatio 0
scalar FogSequentialForward.fog[53].server[0] totalJobs 3767
scalar FogSequentialForward.fog[53].server[0] droppedJobsQueue 0
scalar FogSequentialForward.fog[53].server[0] droppedJobsTimout 0
scalar FogSequentialForward.fog[53].server[0] droppedJobsSLA 0
scalar FogSequentialForward.fog[53].server[0] droppedJobsTotal 0
scalar FogSequentialForward.fog[54].dispatcher localJobs 3626
scalar FogSequentialForward.fog[54].dispatcher internalJobs 3619
scalar FogSequentialForward.fog[54].dispatcher externalJobs 261
scalar FogSequentialForward.fog[54].dispatcher remoteJobs 254
scalar FogSequentialForward.fog[54].dispatcher probeQueries 0
scalar FogSequentialForward.fog[54].dispatcher probeAnswers 0
scalar FogSequentialForward.fog[54].dispatcher droppedJobsSLA 0
scalar FogSequentialForward.fog[54].dispatcher jobs_class_1 3880
scalar FogSequentialForward.fog[54].dispatcher remoteJobs_class_1 254
scalar FogSequentialForward.fog[54].dispatcher localJobs_class_1 3626
scalar FogSequentialForward.fog[54].server[0] rho 0.56044983863831
scalar FogSequentialForward.fog[54].server[0] congestionRatio 0
scalar FogSequentialForward.fog[54].server[0] totalJobs 3626
scalar FogSequentialForward.fog[54].server[0] droppedJobsQueue 0
scalar FogSequentialForward.fog[54].server[0] droppedJobsTimout 0
scalar FogSequentialForward.fog[54].server[0] droppedJobsSLA 0
scalar FogSequentialForward.fog[54].server[0] droppedJobsTotal 0
scalar FogSequentialForward.fog[55].dispatcher localJobs 3559
scalar FogSequentialForward.fog[55].dispatcher internalJobs 3549
scalar FogSequentialForward.fog[55].dispatcher externalJobs 289
scalar FogSequentialForward.fog[55].dispatcher remoteJobs 279
scalar FogSequentialForward.fog[55].dispatcher probeQueries 0
scalar FogSequentialForward.fog[55].dispatcher probeAnswers 0
scalar FogSequentialForward.fog[55].dispatcher droppedJobsSLA 0
scalar FogSequentialForward.fog[55].dispatcher jobs_class_1 3838
scalar FogSequentialForward.fog[55].dispatcher remoteJobs_class_1 279
scalar FogSequentialForward.fog[55].dispatcher localJobs_class_1 3559
scalar FogSequentialForward.fog[55].server[0] rho 0.55033850669861
scalar FogSequentialForward.fog[55].server[0] congestionRatio 0
scalar FogSequentialForward.fog[55].server[0] totalJobs 3559
scalar FogSequentialForward.fog[55].server[0] droppedJobsQueue 0
scalar FogSequentialForward.fog[55].server[0] droppedJobsTimout 0
scalar FogSequentialForward.fog[55].server[0] droppedJobsSLA 0
scalar FogSequentialForward.fog[55].server[0] droppedJobsTotal 0
scalar FogSequentialForward.fog[56].dispatcher localJobs 3570
scalar FogSequentialForward.fog[56].dispatcher internalJobs 3585
scalar FogSequentialForward.fog[56].dispatcher externalJobs 279
scalar FogSequentialForward.fog[56].dispatcher remoteJobs 294
scalar FogSequentialForward.fog[56].dispatcher probeQueries 0
scalar FogSequentialForward.fog[56].dispatcher probeAnswers 0
scalar FogSequentialForward.fog[56].dispatcher droppedJobsSLA 0
scalar FogSequentialForward.fog[56].dispatcher jobs_class_1 3864
scalar FogSequentialForward.fog[56].dispatcher remoteJobs_class_1 294
scalar FogSequentialForward.fog[56].dispatcher localJobs_class_1 3570
scalar FogSequentialForward.fog[56].server[0] rho 0.55200481414795
scalar FogSequentialForward.fog[56].server[0] congestionRatio 0
scalar FogSequentialForward.fog[56].server[0] totalJobs 3570
scalar FogSequentialForward.fog[56].server[0] droppedJobsQueue 0
scalar FogSequentialForward.fog[56].server[0] droppedJobsTimout 0
scalar FogSequentialForward.fog[56].server[0] droppedJobsSLA 0
scalar FogSequentialForward.fog[56].server[0] droppedJobsTotal 0
scalar FogSequentialForward.fog[57].dispatcher localJobs 3643
scalar FogSequentialForward.fog[57].dispatcher internalJobs 3648
scalar FogSequentialForward.fog[57].dispatcher externalJobs 278
scalar FogSequentialForward.fog[57].dispatcher remoteJobs 283
scalar FogSequentialForward.fog[57].dispatcher probeQueries 0
scalar FogSequentialForward.fog[57].dispatcher probeAnswers 0
scalar FogSequentialForward.fog[57].dispatcher droppedJobsSLA 0
scalar FogSequentialForward.fog[57].dispatcher jobs_class_1 3926
scalar FogSequentialForward.fog[57].dispatcher remoteJobs_class_1 283
scalar FogSequentialForward.fog[57].dispatcher localJobs_class_1 3643
scalar FogSequentialForward.fog[57].server[0] rho 0.56307601928711
scalar FogSequentialForward.fog[57].server[0] congestionRatio 0
scalar FogSequentialForward.fog[57].server[0] totalJobs 3643
scalar FogSequentialForward.fog[57].server[0] droppedJobsQueue 0
scalar FogSequentialForward.fog[57].server[0] droppedJobsTimout 0
scalar FogSequentialForward.fog[57].server[0] droppedJobsSLA 0
scalar FogSequentialForward.fog[57].server[0] droppedJobsTotal 0
scalar FogSequentialForward.fog[58].dispatcher localJobs 3641
scalar FogSequentialForward.fog[58].dispatcher internalJobs 3672
scalar FogSequentialForward.fog[58].dispatcher externalJobs 276
scalar FogSequentialForward.fog[58].dispatcher remoteJobs 307
scalar FogSequentialForward.fog[58].dispatcher probeQueries 0
scalar FogSequentialForward.fog[58].dispatcher probeAnswers 0
scalar FogSequentialForward.fog[58].dispatcher droppedJobsSLA 0
scalar FogSequentialForward.fog[58].dispatcher jobs_class_1 3948
scalar FogSequentialForward.fog[58].dispatcher remoteJobs_class_1 307
scalar FogSequentialForward.fog[58].dispatcher localJobs_class_1 3641
scalar FogSequentialForward.fog[58].server[0] rho 0.5630070567131
scalar FogSequentialForward.fog[58].server[0] congestionRatio 0
scalar FogSequentialForward.fog[58].server[0] totalJobs 3641
scalar FogSequentialForward.fog[58].server[0] droppedJobsQueue 0
scalar FogSequentialForward.fog[58].server[0] droppedJobsTimout 0
scalar FogSequentialForward.fog[58].server[0] droppedJobsSLA 0
scalar FogSequentialForward.fog[58].server[0] droppedJobsTotal 0
scalar FogSequentialForward.fog[59].dispatcher localJobs 3593
scalar FogSequentialForward.fog[59].dispatcher internalJobs 3583
scalar FogSequentialForward.fog[59].dispatcher externalJobs 289
scalar FogSequentialForward.fog[59].dispatcher remoteJobs 279
scalar FogSequentialForward.fog[59].dispatcher probeQueries 0
scalar FogSequentialForward.fog[59].dispatcher probeAnswers 0
scalar FogSequentialForward.fog[59].dispatcher droppedJobsSLA 0
scalar FogSequentialForward.fog[59].dispatcher jobs_class_1 3872
scalar FogSequentialForward.fog[59].dispatcher remoteJobs_class_1 279
scalar FogSequentialForward.fog[59].dispatcher localJobs_class_1 3593
scalar FogSequentialForward.fog[59].server[0] rho 0.55542761087418
scalar FogSequentialForward.fog[59].server[0] congestionRatio 0
scalar FogSequentialForward.fog[59].server[0] totalJobs 3593
scalar FogSequentialForward.fog[59].server[0] droppedJobsQueue 0
scalar FogSequentialForward.fog[59].server[0] droppedJobsTimout 0
scalar FogSequentialForward.fog[59].server[0] droppedJobsSLA 0
scalar FogSequentialForward.fog[59].server[0] droppedJobsTotal 0
scalar FogSequentialForward.fog[60].dispatcher localJobs 3636
scalar FogSequentialForward.fog[60].dispatcher internalJobs 3616
scalar FogSequentialForward.fog[60].dispatcher externalJobs 287
scalar FogSequentialForward.fog[60].dispatcher remoteJobs 267
scalar FogSequentialForward.fog[60].dispatcher probeQueries 0
scalar FogSequentialForward.fog[60].dispatcher probeAnswers 0
scalar FogSequentialForward.fog[60].dispatcher droppedJobsSLA 0
scalar FogSequentialForward.fog[60].dispatcher jobs_class_1 3903
scalar FogSequentialForward.fog[60].dispatcher remoteJobs_class_1 267
scalar FogSequentialForward.fog[60].dispatcher localJobs_class_1 3636
scalar FogSequentialForward.fog[60].server[0] rho 0.56231927871704
scalar FogSequentialForward.fog[60].server[0] congestionRatio 0
scalar FogSequentialForward.fog[60].server[0] totalJobs 3636
scalar FogSequentialForward.fog[60].server[0] droppedJobsQueue 0
scalar FogSequentialForward.fog[60].server[0] droppedJobsTimout 0
scalar FogSequentialForward.fog[60].server[0] droppedJobsSLA 0
scalar FogSequentialForward.fog[60].server[0] droppedJobsTotal 0
scalar FogSequentialForward.fog[61].dispatcher localJobs 3553
scalar FogSequentialForward.fog[61].dispatcher internalJobs 3567
scalar FogSequentialForward.fog[61].dispatcher externalJobs 292
scalar FogSequentialForward.fog[61].dispatcher remoteJobs 306
scalar FogSequentialForward.fog[61].dispatcher probeQueries 0
scalar FogSequentialForward.fog[61].dispatcher probeAnswers 0
scalar FogSequentialForward.fog[61].dispatcher droppedJobsSLA 0
scalar FogSequentialForward.fog[61].dispatcher jobs_class_1 3859
scalar FogSequentialForward.fog[61].dispatcher remoteJobs_class_1 306
scalar FogSequentialForward.fog[61].dispatcher localJobs_class_1 3553
scalar FogSequentialForward.fog[61].server[0] rho 0.5495782494545
scalar FogSequentialForward.fog[61].server[0] congestionRatio 0
scalar FogSequentialForward.fog[61].server[0] totalJobs 3553
scalar FogSequentialForward.fog[61].server[0] droppedJobsQueue 0
scalar FogSequentialForward.fog[61].server[0] droppedJobsTimout 0
scalar FogSequentialForward.fog[61].server[0] droppedJobsSLA 0
scalar FogSequentialForward.fog[61].server[0] droppedJobsTotal 0
scalar FogSequentialForward.fog[62].dispatcher localJobs 3568
scalar FogSequentialForward.fog[62].dispatcher internalJobs 3609
scalar FogSequentialForward.fog[62].dispatcher externalJobs 276
scalar FogSequentialForward.fog[62].dispatcher remoteJobs 317
scalar FogSequentialForward.fog[62].dispatcher probeQueries 0
scalar FogSequentialForward.fog[62].dispatcher probeAnswers 0
scalar FogSequentialForward.fog[62].dispatcher droppedJobsSLA 0
scalar FogSequentialForward.fog[62].dispatcher jobs_class_1 3885
scalar FogSequentialForward.fog[62].dispatcher remoteJobs_class_1 317
scalar FogSequentialForward.fog[62].dispatcher localJobs_class_1 3568
scalar FogSequentialForward.fog[62].server[0] rho 0.55168122053146
scalar FogSequentialForward.fog[62].server[0] congestionRatio 0
scalar FogSequentialForward.fog[62].server[0] totalJobs 3568
scalar FogSequentialForward.fog[62].server[0] droppedJobsQueue 0
scalar FogSequentialForward.fog[62].server[0] droppedJobsTimout 0
scalar FogSequentialForward.fog[62].server[0] droppedJobsSLA 0
scalar FogSequentialForward.fog[62].server[0] droppedJobsTotal 0
scalar FogSequentialForward.fog[63].dispatcher localJobs 3597
scalar FogSequentialForward.fog[63].dispatcher internalJobs 3630
scalar FogSequentialForward.fog[63].dispatcher externalJobs 250
scalar FogSequentialForward.fog[63].dispatcher remoteJobs 283
scalar FogSequentialForward.fog[63].dispatcher probeQueries 0
scalar FogSequentialForward.fog[63].dispatcher probeAnswers 0
scalar FogSequentialForward.fog[63].dispatcher droppedJobsSLA 0
scalar FogSequentialForward.fog[63].dispatcher jobs_class_1 3880
scalar FogSequentialForward.fog[63].dispatcher remoteJobs_class_1 283
scalar FogSequentialForward.fog[63].dispatcher localJobs_class_1 3597
scalar FogSequentialForward.fog[63].server[0] rho 0.55588674545288
scalar FogSequentialForward.fog[63].server[0] congestionRatio 0
scalar FogSequentialForward.fog[63].server[0] totalJobs 3597
scalar FogSequentialForward.fog[63].server[0] droppedJobsQueue 0
scalar FogSequentialForward.fog[63].server[0] droppedJobsTimout 0
scalar FogSequentialForward.fog[63].server[0] droppedJobsSLA 0
scalar FogSequentialForward.fog[63].server[0] droppedJobsTotal 0
scalar FogSequentialForward.fog[64].dispatcher localJobs 3532
scalar FogSequentialForward.fog[64].dispatcher internalJobs 3501
scalar FogSequentialForward.fog[64].dispatcher externalJobs 267
scalar FogSequentialForward.fog[64].dispatcher remoteJobs 236
scalar FogSequentialForward.fog[64].dispatcher probeQueries 0
scalar FogSequentialForward.fog[64].dispatcher probeAnswers 0
scalar FogSequentialForward.fog[64].dispatcher droppedJobsSLA 0
scalar FogSequentialForward.fog[64].dispatcher jobs_class_1 3768
scalar FogSequentialForward.fog[64].dispatcher remoteJobs_class_1 236
scalar FogSequentialForward.fog[64].dispatcher localJobs_class_1 3532
scalar FogSequentialForward.fog[64].server[0] rho 0.54586255550385
scalar FogSequentialForward.fog[64].server[0] congestionRatio 0
scalar FogSequentialForward.fog[64].server[0] totalJobs 3532
scalar FogSequentialForward.fog[64].server[0] droppedJobsQueue 0
scalar FogSequentialForward.fog[64].server[0] droppedJobsTimout 0
scalar FogSequentialForward.fog[64].server[0] droppedJobsSLA 0
scalar FogSequentialForward.fog[64].server[0] droppedJobsTotal 0
scalar FogSequentialForward.fog[65].dispatcher localJobs 3608
scalar FogSequentialForward.fog[65].dispatcher internalJobs 3616
scalar FogSequentialForward.fog[65].dispatcher externalJobs 303
scalar FogSequentialForward.fog[65].dispatcher remoteJobs 311
scalar FogSequentialForward.fog[65].dispatcher probeQueries 0
scalar FogSequentialForward.fog[65].dispatcher probeAnswers 0
scalar FogSequentialForward.fog[65].dispatcher droppedJobsSLA 0
scalar FogSequentialForward.fog[65].dispatcher jobs_class_1 3919
scalar FogSequentialForward.fog[65].dispatcher remoteJobs_class_1 311
scalar FogSequentialForward.fog[65].dispatcher localJobs_class_1 3608
scalar FogSequentialForward.fog[65].server[0] rho 0.55766183137894
scalar FogSequentialForward.fog[65].server[0] congestionRatio 0
scalar FogSequentialForward.fog[65].server[0] totalJobs 3608
scalar FogSequentialForward.fog[65].server[0] droppedJobsQueue 0
scalar FogSequentialForward.fog[65].server[0] droppedJobsTimout 0
scalar FogSequentialForward.fog[65].server[0] droppedJobsSLA 0
scalar FogSequentialForward.fog[65].server[0] droppedJobsTotal 0
scalar FogSequentialForward.fog[66].dispatcher localJobs 3556
scalar FogSequentialForward.fog[66].dispatcher internalJobs 3565
scalar FogSequentialForward.fog[66].dispatcher externalJobs 277
scalar FogSequentialForward.fog[66].dispatcher remoteJobs 286
scalar FogSequentialForward.fog[66].dispatcher probeQueries 0
scalar FogSequentialForward.fog[66].dispatcher probeAnswers 0
scalar FogSequentialForward.fog[66].dispatcher droppedJobsSLA 0
scalar FogSequentialForward.fog[66].dispatcher jobs_class_1 3842
scalar FogSequentialForward.fog[66].dispatcher remoteJobs_class_1 286
scalar FogSequentialForward.fog[66].dispatcher localJobs_class_1 3556
scalar FogSequentialForward.fog[66].server[0] rho 0.54969877004623
scalar FogSequentialForward.fog[66].server[0] congestionRatio 0
scalar FogSequentialForward.fog[66].server[0] totalJobs 3556
scalar FogSequentialForward.fog[66].server[0] droppedJobsQueue 0
scalar FogSequentialForward.fog[66].server[0] droppedJobsTimout 0
scalar FogSequentialForward.fog[66].server[0] droppedJobsSLA 0
scalar FogSequentialForward.fog[66].server[0] droppedJobsTotal 0
scalar FogSequentialForward.fog[67].dispatcher localJobs 3665
scalar FogSequentialForward.fog[67].dispatcher internalJobs 3698
scalar FogSequentialForward.fog[67].dispatcher externalJobs 276
scalar FogSequentialForward.fog[67].dispatcher remoteJobs 309
scalar FogSequentialForward.fog[67].dispatcher probeQueries 0
scalar FogSequentialForward.fog[67].dispatcher probeAnswers 0
scalar FogSequentialForward.fog[67].dispatcher droppedJobsSLA 0
scalar FogSequentialForward.fog[67].dispatcher jobs_class_1 3974
scalar FogSequentialForward.fog[67].dispatcher remoteJobs_class_1 309
scalar FogSequentialForward.fog[67].dispatcher localJobs_class_1 3665
scalar FogSequentialForward.fog[67].server[0] rho 0.56633967161179
scalar FogSequentialForward.fog[67].server[0] congestionRatio 0
scalar FogSequentialForward.fog[67].server[0] totalJobs 3665
scalar FogSequentialForward.fog[67].server[0] droppedJobsQueue 0
scalar FogSequentialForward.fog[67].server[0] droppedJobsTimout 0
scalar FogSequentialForward.fog[67].server[0] droppedJobsSLA 0
scalar FogSequentialForward.fog[67].server[0] droppedJobsTotal 0
scalar FogSequentialForward.fog[68].dispatcher localJobs 3568
scalar FogSequentialForward.fog[68].dispatcher internalJobs 3543
scalar FogSequentialForward.fog[68].dispatcher externalJobs 300
scalar FogSequentialForward.fog[68].dispatcher remoteJobs 275
scalar FogSequentialForward.fog[68].dispatcher probeQueries 0
scalar FogSequentialForward.fog[68].dispatcher probeAnswers 0
scalar FogSequentialForward.fog[68].dispatcher droppedJobsSLA 0
scalar FogSequentialForward.fog[68].dispatcher jobs_class_1 3843
scalar FogSequentialForward.fog[68].dispatcher remoteJobs_class_1 275
scalar FogSequentialForward.fog[68].dispatcher localJobs_class_1 3568
scalar FogSequentialForward.fog[68].server[0] rho 0.55154520273209
scalar FogSequentialForward.fog[68].server[0] congestionRatio 0
scalar FogSequentialForward.fog[68].server[0] totalJobs 3568
scalar FogSequentialForward.fog[68].server[0] droppedJobsQueue 0
scalar FogSequentialForward.fog[68].server[0] droppedJobsTimout 0
scalar FogSequentialForward.fog[68].server[0] droppedJobsSLA 0
scalar FogSequentialForward.fog[68].server[0] droppedJobsTotal 0
scalar FogSequentialForward.fog[69].dispatcher localJobs 3614
scalar FogSequentialForward.fog[69].dispatcher internalJobs 3599
scalar FogSequentialForward.fog[69].dispatcher externalJobs 299
scalar FogSequentialForward.fog[69].dispatcher remoteJobs 284
scalar FogSequentialForward.fog[69].dispatcher probeQueries 0
scalar FogSequentialForward.fog[69].dispatcher probeAnswers 0
scalar FogSequentialForward.fog[69].dispatcher droppedJobsSLA 0
scalar FogSequentialForward.fog[69].dispatcher jobs_class_1 3898
scalar FogSequentialForward.fog[69].dispatcher remoteJobs_class_1 284
scalar FogSequentialForward.fog[69].dispatcher localJobs_class_1 3614
scalar FogSequentialForward.fog[69].server[0] rho 0.55876100063324
scalar FogSequentialForward.fog[69].server[0] congestionRatio 0
scalar FogSequentialForward.fog[69].server[0] totalJobs 3614
scalar FogSequentialForward.fog[69].server[0] droppedJobsQueue 0
scalar FogSequentialForward.fog[69].server[0] droppedJobsTimout 0
scalar FogSequentialForward.fog[69].server[0] droppedJobsSLA 0
scalar FogSequentialForward.fog[69].server[0] droppedJobsTotal 0
scalar FogSequentialForward.fog[70].dispatcher localJobs 3636
scalar FogSequentialForward.fog[70].dispatcher internalJobs 3643
scalar FogSequentialForward.fog[70].dispatcher externalJobs 276
scalar FogSequentialForward.fog[70].dispatcher remoteJobs 283
scalar FogSequentialForward.fog[70].dispatcher probeQueries 0
scalar FogSequentialForward.fog[70].dispatcher probeAnswers 0
scalar FogSequentialForward.fog[70].dispatcher droppedJobsSLA 0
scalar FogSequentialForward.fog[70].dispatcher jobs_class_1 3919
scalar FogSequentialForward.fog[70].dispatcher remoteJobs_class_1 283
scalar FogSequentialForward.fog[70].dispatcher localJobs_class_1 3636
scalar FogSequentialForward.fog[70].server[0] rho 0.56210964918137
scalar FogSequentialForward.fog[70].server[0] congestionRatio 0
scalar FogSequentialForward.fog[70].server[0] totalJobs 3636
scalar FogSequentialForward.fog[70].server[0] droppedJobsQueue 0
scalar FogSequentialForward.fog[70].server[0] droppedJobsTimout 0
scalar FogSequentialForward.fog[70].server[0] droppedJobsSLA 0
scalar FogSequentialForward.fog[70].server[0] droppedJobsTotal 0
scalar FogSequentialForward.fog[71].dispatcher localJobs 3641
scalar FogSequentialForward.fog[71].dispatcher internalJobs 3664
scalar FogSequentialForward.fog[71].dispatcher externalJobs 292
scalar FogSequentialForward.fog[71].dispatcher remoteJobs 315
scalar FogSequentialForward.fog[71].dispatcher probeQueries 0
scalar FogSequentialForward.fog[71].dispatcher probeAnswers 0
scalar FogSequentialForward.fog[71].dispatcher droppedJobsSLA 0
scalar FogSequentialForward.fog[71].dispatcher jobs_class_1 3956
scalar FogSequentialForward.fog[71].dispatcher remoteJobs_class_1 315
scalar FogSequentialForward.fog[71].dispatcher localJobs_class_1 3641
scalar FogSequentialForward.fog[71].server[0] rho 0.56288522481918
scalar FogSequentialForward.fog[71].server[0] congestionRatio 0
scalar FogSequentialForward.fog[71].server[0] totalJobs 3641
scalar FogSequentialForward.fog[71].server[0] droppedJobsQueue 0
scalar FogSequentialForward.fog[71].server[0] droppedJobsTimout 0
scalar FogSequentialForward.fog[71].server[0] droppedJobsSLA 0
[...]
scalar FogSequentialForward.fog[82].server[0] droppedJobsQueue 0
scalar FogSequentialForward.fog[82].server[0] droppedJobsTimout 0
scalar FogSequentialForward.fog[82].server[0] droppedJobsSLA 0
scalar FogSequentialForward.fog[82].server[0] droppedJobsTotal 0
scalar FogSequentialForward.fog[83].dispatcher localJobs 3583
scalar FogSequentialForward.fog[83].dispatcher internalJobs 3601
scalar FogSequentialForward.fog[83].dispatcher externalJobs 298
scalar FogSequentialForward.fog[83].dispatcher remoteJobs 316
scalar FogSequentialForward.fog[83].dispatcher probeQueries 0
scalar FogSequentialForward.fog[83].dispatcher probeAnswers 0
scalar FogSequentialForward.fog[83].dispatcher droppedJobsSLA 0
scalar FogSequentialForward.fog[83].dispatcher jobs_class_1 3899
scalar FogSequentialForward.fog[83].dispatcher remoteJobs_class_1 316
scalar FogSequentialForward.fog[83].dispatcher localJobs_class_1 3583
scalar FogSequentialForward.fog[83].server[0] rho 0.55429077148438
scalar FogSequentialForward.fog[83].server[0] congestionRatio 0
scalar FogSequentialForward.fog[83].server[0] totalJobs 3583
scalar FogSequentialForward.fog[83].server[0] droppedJobsQueue 0
scalar FogSequentialForward.fog[83].server[0] droppedJobsTimout 0
scalar FogSequentialForward.fog[83].server[0] droppedJobsSLA 0
scalar FogSequentialForward.fog[83].server[0] droppedJobsTotal 0
scalar FogSequentialForward.fog[84].dispatcher localJobs 3778
scalar FogSequentialForward.fog[84].dispatcher internalJobs 3802
scalar FogSequentialForward.fog[84].dispatcher externalJobs 299
scalar FogSequentialForward.fog[84].dispatcher remoteJobs 323
scalar FogSequentialForward.fog[84].dispatcher probeQueries 0
scalar FogSequentialForward.fog[84].dispatcher probeAnswers 0
scalar FogSequentialForward.fog[84].dispatcher droppedJobsSLA 0
scalar FogSequentialForward.fog[84].dispatcher jobs_class_1 4101
scalar FogSequentialForward.fog[84].dispatcher remoteJobs_class_1 323
scalar FogSequentialForward.fog[84].dispatcher localJobs_class_1 3778
scalar FogSequentialForward.fog[84].server[0] rho 0.58369207382202
scalar FogSequentialForward.fog[84].server[0] congestionRatio 0
scalar FogSequentialForward.fog[84].server[0] totalJobs 3778
scalar FogSequentialForward.fog[84].server[0] droppedJobsQueue 0
scalar FogSequentialForward.fog[84].server[0] droppedJobsTimout 0
scalar FogSequentialForward.fog[84].server[0] droppedJobsSLA 0
scalar FogSequentialForward.fog[84].server[0] droppedJobsTotal 0
scalar FogSequentialForward.fog[85].dispatcher localJobs 3554
scalar FogSequentialForward.fog[85].dispatcher internalJobs 3578
scalar FogSequentialForward.fog[85].dispatcher externalJobs 267
scalar FogSequentialForward.fog[85].dispatcher remoteJobs 291
scalar FogSequentialForward.fog[85].dispatcher probeQueries 0
scalar FogSequentialForward.fog[85].dispatcher probeAnswers 0
scalar FogSequentialForward.fog[85].dispatcher droppedJobsSLA 0
scalar FogSequentialForward.fog[85].dispatcher jobs_class_1 3845
scalar FogSequentialForward.fog[85].dispatcher remoteJobs_class_1 291
scalar FogSequentialForward.fog[85].dispatcher localJobs_class_1 3554
scalar FogSequentialForward.fog[85].server[0] rho 0.54958337545395
scalar FogSequentialForward.fog[85].server[0] congestionRatio 0
scalar FogSequentialForward.fog[85].server[0] totalJobs 3554
scalar FogSequentialForward.fog[85].server[0] droppedJobsQueue 0
scalar FogSequentialForward.fog[85].server[0] droppedJobsTimout 0
scalar FogSequentialForward.fog[85].server[0] droppedJobsSLA 0
scalar FogSequentialForward.fog[85].server[0] droppedJobsTotal 0
scalar FogSequentialForward.fog[86].dispatcher localJobs 3652
scalar FogSequentialForward.fog[86].dispatcher internalJobs 3622
scalar FogSequentialForward.fog[86].dispatcher externalJobs 315
scalar FogSequentialForward.fog[86].dispatcher remoteJobs 285
scalar FogSequentialForward.fog[86].dispatcher probeQueries 0
scalar FogSequentialForward.fog[86].dispatcher probeAnswers 0
scalar FogSequentialForward.fog[86].dispatcher droppedJobsSLA 0
scalar FogSequentialForward.fog[86].dispatcher jobs_class_1 3937
scalar FogSequentialForward.fog[86].dispatcher remoteJobs_class_1 285
scalar FogSequentialForward.fog[86].dispatcher localJobs_class_1 3652
scalar FogSequentialForward.fog[86].server[0] rho 0.5647252202034
scalar FogSequentialForward.fog[86].server[0] congestionRatio 0
scalar FogSequentialForward.fog[86].server[0] totalJobs 3652
scalar FogSequentialForward.fog[86].server[0] droppedJobsQueue 0
scalar FogSequentialForward.fog[86].server[0] droppedJobsTimout 0
scalar FogSequentialForward.fog[86].server[0] droppedJobsSLA 0
scalar FogSequentialForward.fog[86].server[0] droppedJobsTotal 0
scalar FogSequentialForward.fog[87].dispatcher localJobs 3632
scalar FogSequentialForward.fog[87].dispatcher internalJobs 3639
scalar FogSequentialForward.fog[87].dispatcher externalJobs 271
scalar FogSequentialForward.fog[87].dispatcher remoteJobs 278
scalar FogSequentialForward.fog[87].dispatcher probeQueries 0
scalar FogSequentialForward.fog[87].dispatcher probeAnswers 0
scalar FogSequentialForward.fog[87].dispatcher droppedJobsSLA 0
scalar FogSequentialForward.fog[87].dispatcher jobs_class_1 3910
scalar FogSequentialForward.fog[87].dispatcher remoteJobs_class_1 278
scalar FogSequentialForward.fog[87].dispatcher localJobs_class_1 3632
scalar FogSequentialForward.fog[87].server[0] rho 0.56150496006012
scalar FogSequentialForward.fog[87].server[0] congestionRatio 0
scalar FogSequentialForward.fog[87].server[0] totalJobs 3632
scalar FogSequentialForward.fog[87].server[0] droppedJobsQueue 0
scalar FogSequentialForward.fog[87].server[0] droppedJobsTimout 0
scalar FogSequentialForward.fog[87].server[0] droppedJobsSLA 0
scalar FogSequentialForward.fog[87].server[0] droppedJobsTotal 0
scalar FogSequentialForward.fog[88].dispatcher localJobs 3565
scalar FogSequentialForward.fog[88].dispatcher internalJobs 3596
scalar FogSequentialForward.fog[88].dispatcher externalJobs 251
scalar FogSequentialForward.fog[88].dispatcher remoteJobs 282
scalar FogSequentialForward.fog[88].dispatcher probeQueries 0
scalar FogSequentialForward.fog[88].dispatcher probeAnswers 0
scalar FogSequentialForward.fog[88].dispatcher droppedJobsSLA 0
scalar FogSequentialForward.fog[88].dispatcher jobs_class_1 3847
scalar FogSequentialForward.fog[88].dispatcher remoteJobs_class_1 282
scalar FogSequentialForward.fog[88].dispatcher localJobs_class_1 3565
scalar FogSequentialForward.fog[88].server[0] rho 0.55112010240555
scalar FogSequentialForward.fog[88].server[0] congestionRatio 0
scalar FogSequentialForward.fog[88].server[0] totalJobs 3565
scalar FogSequentialForward.fog[88].server[0] droppedJobsQueue 0
scalar FogSequentialForward.fog[88].server[0] droppedJobsTimout 0
scalar FogSequentialForward.fog[88].server[0] droppedJobsSLA 0
scalar FogSequentialForward.fog[88].server[0] droppedJobsTotal 0
scalar FogSequentialForward.fog[89].dispatcher localJobs 3719
scalar FogSequentialForward.fog[89].dispatcher internalJobs 3700
scalar FogSequentialForward.fog[89].dispatcher externalJobs 271
scalar FogSequentialForward.fog[89].dispatcher remoteJobs 252
scalar FogSequentialForward.fog[89].dispatcher probeQueries 0
scalar FogSequentialForward.fog[89].dispatcher probeAnswers 0
scalar FogSequentialForward.fog[89].dispatcher droppedJobsSLA 0
scalar FogSequentialForward.fog[89].dispatcher jobs_class_1 3971
scalar FogSequentialForward.fog[89].dispatcher remoteJobs_class_1 252
scalar FogSequentialForward.fog[89].dispatcher localJobs_class_1 3719
scalar FogSequentialForward.fog[89].server[0] rho 0.57495737075806
scalar FogSequentialForward.fog[89].server[0] congestionRatio 0
scalar FogSequentialForward.fog[89].server[0] totalJobs 3719
scalar FogSequentialForward.fog[89].server[0] droppedJobsQueue 0
scalar FogSequentialForward.fog[89].server[0] droppedJobsTimout 0
scalar FogSequentialForward.fog[89].server[0] droppedJobsSLA 0
scalar FogSequentialForward.fog[89].server[0] droppedJobsTotal 0
scalar FogSequentialForward.fog[90].dispatcher localJobs 3550
scalar FogSequentialForward.fog[90].dispatcher internalJobs 3549
scalar FogSequentialForward.fog[90].dispatcher externalJobs 265
scalar FogSequentialForward.fog[90].dispatcher remoteJobs 264
scalar FogSequentialForward.fog[90].dispatcher probeQueries 0
scalar FogSequentialForward.fog[90].dispatcher probeAnswers 0
scalar FogSequentialForward.fog[90].dispatcher droppedJobsSLA 0
scalar FogSequentialForward.fog[90].dispatcher jobs_class_1 3814
scalar FogSequentialForward.fog[90].dispatcher remoteJobs_class_1 264
scalar FogSequentialForward.fog[90].dispatcher localJobs_class_1 3550
scalar FogSequentialForward.fog[90].server[0] rho 0.54876178503036
scalar FogSequentialForward.fog[90].server[0] congestionRatio 0
scalar FogSequentialForward.fog[90].server[0] totalJobs 3550
scalar FogSequentialForward.fog[90].server[0] droppedJobsQueue 0
scalar FogSequentialForward.fog[90].server[0] droppedJobsTimout 0
scalar FogSequentialForward.fog[90].server[0] droppedJobsSLA 0
scalar FogSequentialForward.fog[90].server[0] droppedJobsTotal 0
scalar FogSequentialForward.fog[91].dispatcher localJobs 3625
scalar FogSequentialForward.fog[91].dispatcher internalJobs 3605
scalar FogSequentialForward.fog[91].dispatcher externalJobs 299
scalar FogSequentialForward.fog[91].dispatcher remoteJobs 279
scalar FogSequentialForward.fog[91].dispatcher probeQueries 0
scalar FogSequentialForward.fog[91].dispatcher probeAnswers 0
scalar FogSequentialForward.fog[91].dispatcher droppedJobsSLA 0
scalar FogSequentialForward.fog[91].dispatcher jobs_class_1 3904
scalar FogSequentialForward.fog[91].dispatcher remoteJobs_class_1 279
scalar FogSequentialForward.fog[91].dispatcher localJobs_class_1 3625
scalar FogSequentialForward.fog[91].server[0] rho 0.56041729450226
scalar FogSequentialForward.fog[91].server[0] congestionRatio 0
scalar FogSequentialForward.fog[91].server[0] totalJobs 3625
scalar FogSequentialForward.fog[91].server[0] droppedJobsQueue 0
scalar FogSequentialForward.fog[91].server[0] droppedJobsTimout 0
scalar FogSequentialForward.fog[91].server[0] droppedJobsSLA 0
scalar FogSequentialForward.fog[91].server[0] droppedJobsTotal 0
scalar FogSequentialForward.fog[92].dispatcher localJobs 3590
scalar FogSequentialForward.fog[92].dispatcher internalJobs 3608
scalar FogSequentialForward.fog[92].dispatcher externalJobs 286
scalar FogSequentialForward.fog[92].dispatcher remoteJobs 304
scalar FogSequentialForward.fog[92].dispatcher probeQueries 0
scalar FogSequentialForward.fog[92].dispatcher probeAnswers 0
scalar FogSequentialForward.fog[92].dispatcher droppedJobsSLA 0
scalar FogSequentialForward.fog[92].dispatcher jobs_class_1 3894
scalar FogSequentialForward.fog[92].dispatcher remoteJobs_class_1 304
scalar FogSequentialForward.fog[92].dispatcher localJobs_class_1 3590
scalar FogSequentialForward.fog[92].server[0] rho 0.55494612455368
scalar FogSequentialForward.fog[92].server[0] congestionRatio 0
scalar FogSequentialForward.fog[92].server[0] totalJobs 3590
scalar FogSequentialForward.fog[92].server[0] droppedJobsQueue 0
scalar FogSequentialForward.fog[92].server[0] droppedJobsTimout 0
scalar FogSequentialForward.fog[92].server[0] droppedJobsSLA 0
scalar FogSequentialForward.fog[92].server[0] droppedJobsTotal 0
scalar FogSequentialForward.fog[93].dispatcher localJobs 3692
scalar FogSequentialForward.fog[93].dispatcher internalJobs 3706
scalar FogSequentialForward.fog[93].dispatcher externalJobs 295
scalar FogSequentialForward.fog[93].dispatcher remoteJobs 309
scalar FogSequentialForward.fog[93].dispatcher probeQueries 0
scalar FogSequentialForward.fog[93].dispatcher probeAnswers 0
scalar FogSequentialForward.fog[93].dispatcher droppedJobsSLA 0
scalar FogSequentialForward.fog[93].dispatcher jobs_class_1 4001
scalar FogSequentialForward.fog[93].dispatcher remoteJobs_class_1 309
scalar FogSequentialForward.fog[93].dispatcher localJobs_class_1 3692
scalar FogSequentialForward.fog[93].server[0] rho 0.57079631090164
scalar FogSequentialForward.fog[93].server[0] congestionRatio 0
scalar FogSequentialForward.fog[93].server[0] totalJobs 3692
scalar FogSequentialForward.fog[93].server[0] droppedJobsQueue 0
scalar FogSequentialForward.fog[93].server[0] droppedJobsTimout 0
scalar FogSequentialForward.fog[93].server[0] droppedJobsSLA 0
scalar FogSequentialForward.fog[93].server[0] droppedJobsTotal 0
scalar FogSequentialForward.fog[94].dispatcher localJobs 3570
scalar FogSequentialForward.fog[94].dispatcher internalJobs 3612
scalar FogSequentialForward.fog[94].dispatcher externalJobs 272
scalar FogSequentialForward.fog[94].dispatcher remoteJobs 314
scalar FogSequentialForward.fog[94].dispatcher probeQueries 0
scalar FogSequentialForward.fog[94].dispatcher probeAnswers 0
scalar FogSequentialForward.fog[94].dispatcher droppedJobsSLA 0
scalar FogSequentialForward.fog[94].dispatcher jobs_class_1 3884
scalar FogSequentialForward.fog[94].dispatcher remoteJobs_class_1 314
scalar FogSequentialForward.fog[94].dispatcher localJobs_class_1 3570
scalar FogSequentialForward.fog[94].server[0] rho 0.55193144083023
scalar FogSequentialForward.fog[94].server[0] congestionRatio 0
scalar FogSequentialForward.fog[94].server[0] totalJobs 3570
scalar FogSequentialForward.fog[94].server[0] droppedJobsQueue 0
scalar FogSequentialForward.fog[94].server[0] droppedJobsTimout 0
scalar FogSequentialForward.fog[94].server[0] droppedJobsSLA 0
scalar FogSequentialForward.fog[94].server[0] droppedJobsTotal 0
scalar FogSequentialForward.fog[95].dispatcher localJobs 3686
scalar FogSequentialForward.fog[95].dispatcher internalJobs 3635
scalar FogSequentialForward.fog[95].dispatcher externalJobs 328
scalar FogSequentialForward.fog[95].dispatcher remoteJobs 277
scalar FogSequentialForward.fog[95].dispatcher probeQueries 0
scalar FogSequentialForward.fog[95].dispatcher probeAnswers 0
scalar FogSequentialForward.fog[95].dispatcher droppedJobsSLA 0
scalar FogSequentialForward.fog[95].dispatcher jobs_class_1 3963
scalar FogSequentialForward.fog[95].dispatcher remoteJobs_class_1 277
scalar FogSequentialForward.fog[95].dispatcher localJobs_class_1 3686
scalar FogSequentialForward.fog[95].server[0] rho 0.56996184587479
scalar FogSequentialForward.fog[95].server[0] congestionRatio 0
scalar FogSequentialForward.fog[95].server[0] totalJobs 3686
scalar FogSequentialForward.fog[95].server[0] droppedJobsQueue 0
scalar FogSequentialForward.fog[95].server[0] droppedJobsTimout 0
scalar FogSequentialForward.fog[95].server[0] droppedJobsSLA 0
scalar FogSequentialForward.fog[95].server[0] droppedJobsTotal 0
scalar FogSequentialForward.fog[96].dispatcher localJobs 3637
scalar FogSequentialForward.fog[96].dispatcher internalJobs 3594
scalar FogSequentialForward.fog[96].dispatcher externalJobs 300
scalar FogSequentialForward.fog[96].dispatcher remoteJobs 257
scalar FogSequentialForward.fog[96].dispatcher probeQueries 0
scalar FogSequentialForward.fog[96].dispatcher probeAnswers 0
scalar FogSequentialForward.fog[96].dispatcher droppedJobsSLA 0
scalar FogSequentialForward.fog[96].dispatcher jobs_class_1 3894
scalar FogSequentialForward.fog[96].dispatcher remoteJobs_class_1 257
scalar FogSequentialForward.fog[96].dispatcher localJobs_class_1 3637
scalar FogSequentialForward.fog[96].server[0] rho 0.56228739023209
scalar FogSequentialForward.fog[96].server[0] congestionRatio 0
scalar FogSequentialForward.fog[96].server[0] totalJobs 3637
scalar FogSequentialForward.fog[96].server[0] droppedJobsQueue 0
scalar FogSequentialForward.fog[96].server[0] droppedJobsTimout 0
scalar FogSequentialForward.fog[96].server[0] droppedJobsSLA 0
scalar FogSequentialForward.fog[96].server[0] droppedJobsTotal 0
scalar FogSequentialForward.fog[97].dispatcher localJobs 3575
scalar FogSequentialForward.fog[97].dispatcher internalJobs 3599
scalar FogSequentialForward.fog[97].dispatcher externalJobs 282
scalar FogSequentialForward.fog[97].dispatcher remoteJobs 306
scalar FogSequentialForward.fog[97].dispatcher probeQueries 0
scalar FogSequentialForward.fog[97].dispatcher probeAnswers 0
scalar FogSequentialForward.fog[97].dispatcher droppedJobsSLA 0
scalar FogSequentialForward.fog[97].dispatcher jobs_class_1 3881
scalar FogSequentialForward.fog[97].dispatcher remoteJobs_class_1 306
scalar FogSequentialForward.fog[97].dispatcher localJobs_class_1 3575
scalar FogSequentialForward.fog[97].server[0] rho 0.55272728204727
scalar FogSequentialForward.fog[97].server[0] congestionRatio 0
scalar FogSequentialForward.fog[97].server[0] totalJobs 3575
scalar FogSequentialForward.fog[97].server[0] droppedJobsQueue 0
scalar FogSequentialForward.fog[97].server[0] droppedJobsTimout 0
scalar FogSequentialForward.fog[97].server[0] droppedJobsSLA 0
scalar FogSequentialForward.fog[97].server[0] droppedJobsTotal 0
scalar FogSequentialForward.fog[98].dispatcher localJobs 3499
scalar FogSequentialForward.fog[98].dispatcher internalJobs 3500
scalar FogSequentialForward.fog[98].dispatcher externalJobs 289
scalar FogSequentialForward.fog[98].dispatcher remoteJobs 290
scalar FogSequentialForward.fog[98].dispatcher probeQueries 0
scalar FogSequentialForward.fog[98].dispatcher probeAnswers 0
scalar FogSequentialForward.fog[98].dispatcher droppedJobsSLA 0
scalar FogSequentialForward.fog[98].dispatcher jobs_class_1 3789
scalar FogSequentialForward.fog[98].dispatcher remoteJobs_class_1 290
scalar FogSequentialForward.fog[98].dispatcher localJobs_class_1 3499
scalar FogSequentialForward.fog[98].server[0] rho 0.54088199138641
scalar FogSequentialForward.fog[98].server[0] congestionRatio 0
scalar FogSequentialForward.fog[98].server[0] totalJobs 3499
scalar FogSequentialForward.fog[98].server[0] droppedJobsQueue 0
scalar FogSequentialForward.fog[98].server[0] droppedJobsTimout 0
scalar FogSequentialForward.fog[98].server[0] droppedJobsSLA 0
scalar FogSequentialForward.fog[98].server[0] droppedJobsTotal 0
scalar FogSequentialForward.fog[99].dispatcher localJobs 3537
scalar FogSequentialForward.fog[99].dispatcher internalJobs 3533
scalar FogSequentialForward.fog[99].dispatcher externalJobs 258
scalar FogSequentialForward.fog[99].dispatcher remoteJobs 254
scalar FogSequentialForward.fog[99].dispatcher probeQueries 0
scalar FogSequentialForward.fog[99].dispatcher probeAnswers 0
scalar FogSequentialForward.fog[99].dispatcher droppedJobsSLA 0
scalar FogSequentialForward.fog[99].dispatcher jobs_class_1 3791
scalar FogSequentialForward.fog[99].dispatcher remoteJobs_class_1 254
scalar FogSequentialForward.fog[99].dispatcher localJobs_class_1 3537
scalar FogSequentialForward.fog[99].server[0] rho 0.54688858985901
scalar FogSequentialForward.fog[99].server[0] congestionRatio 0
scalar FogSequentialForward.fog[99].server[0] totalJobs 3537
scalar FogSequentialForward.fog[99].server[0] droppedJobsQueue 0
scalar FogSequentialForward.fog[99].server[0] droppedJobsTimout 0
scalar FogSequentialForward.fog[99].server[0] droppedJobsSLA 0
scalar FogSequentialForward.fog[99].server[0] droppedJobsTotal 0
scalar FogSequentialForward.sink avg_responseTime_1 2.3750672226633
scalar FogSequentialForward.sink p90_responseTime_1 1.515758869318
scalar FogSequentialForward.sink med_responseTime_1 1.515758869318
scalar FogSequentialForward.sink avg_delayTime_1 0
scalar FogSequentialForward.sink p90_delayTime_1 0
scalar FogSequentialForward.sink med_delayTime_1 0
scalar FogSequentialForward.sink avg_queuingTime_1 0.70376280604373
scalar FogSequentialForward.sink p90_queuingTime_1 0
scalar FogSequentialForward.sink med_queuingTime_1 0
scalar FogSequentialForward.sink avg_serviceTime_1 1.6699748885138
scalar FogSequentialForward.sink p90_serviceTime_1 1.506737645026
scalar FogSequentialForward.sink med_serviceTime_1 1.506737645026
scalar FogSequentialForward.sink avg_balancerTime_1 0.0013295281056744
scalar FogSequentialForward.sink p90_balancerTime_1 0
scalar FogSequentialForward.sink med_balancerTime_1 0
scalar FogSequentialForward.sink avg_balancerCount_1 1.0796124614176
scalar FogSequentialForward.sink p90_balancerCount_1 1
scalar FogSequentialForward.sink med_balancerCount_1 1

