version 2
run FogBase-3-20190712-19:08:39-130745
attr configname FogBase
attr datetime 20190712-19:08:39
attr experiment FogBase
attr inifile FogSequentialForward.ini
attr iterationvars ""
attr iterationvarsf ""
attr measurement ""
attr network FogSequentialForward
attr processid 130745
attr repetition 3
attr replication #3
attr resultdir results
attr runnumber 3
attr seedset 3
param FogSequentialForward.nSources 100
param FogSequentialForward.rho 0.9
param FogSequentialForward.proctimeMul 1.0
param FogSequentialForward.source[*].appId 1
param FogSequentialForward.source[*].realTime true
param FogSequentialForward.source[*].multiHop true
param FogSequentialForward.fog[*].nServers 1
param FogSequentialForward.fog[*].dispatcher.fanOut 1
param FogSequentialForward.fog[*].server[*].timeSlice -1s
param FogSequentialForward.fog[*].server[*].timeout -1s
param FogSequentialForward.fog[*].server[*].capacity 20
param FogSequentialForward.fog[*].server[*].fifo true
param FogSequentialForward.fog[*].server[*].maxServiceTime -1s
param FogSequentialForward.fog[*].dispatcher.thr 1

scalar FogSequentialForward.fog[0].dispatcher localJobs 4
scalar FogSequentialForward.fog[0].dispatcher internalJobs 16479
scalar FogSequentialForward.fog[0].dispatcher externalJobs 16210192
scalar FogSequentialForward.fog[0].dispatcher remoteJobs 16210510
scalar FogSequentialForward.fog[0].dispatcher probeQueries 0
scalar FogSequentialForward.fog[0].dispatcher probeAnswers 0
scalar FogSequentialForward.fog[0].dispatcher droppedJobsSLA 16157
scalar FogSequentialForward.fog[0].dispatcher jobs_class_1 16226671
scalar FogSequentialForward.fog[0].dispatcher remoteJobs_class_1 16210510
scalar FogSequentialForward.fog[0].dispatcher localJobs_class_1 4
scalar FogSequentialForward.fog[0].dispatcher droppedJobsSLA_class_1 16157
scalar FogSequentialForward.fog[0].server[0] rho 0.00063677813159302
scalar FogSequentialForward.fog[0].server[0] congestionRatio 0
scalar FogSequentialForward.fog[0].server[0] totalJobs 4
scalar FogSequentialForward.fog[0].server[0] droppedJobsQueue 0
scalar FogSequentialForward.fog[0].server[0] droppedJobsTimout 0
scalar FogSequentialForward.fog[0].server[0] droppedJobsSLA 0
scalar FogSequentialForward.fog[0].server[0] droppedJobsTotal 0
scalar FogSequentialForward.fog[1].dispatcher localJobs 4
scalar FogSequentialForward.fog[1].dispatcher internalJobs 16464
scalar FogSequentialForward.fog[1].dispatcher externalJobs 16201308
scalar FogSequentialForward.fog[1].dispatcher remoteJobs 16201463
scalar FogSequentialForward.fog[1].dispatcher probeQueries 0
scalar FogSequentialForward.fog[1].dispatcher probeAnswers 0
scalar FogSequentialForward.fog[1].dispatcher droppedJobsSLA 16305
scalar FogSequentialForward.fog[1].dispatcher jobs_class_1 16217772
scalar FogSequentialForward.fog[1].dispatcher remoteJobs_class_1 16201463
scalar FogSequentialForward.fog[1].dispatcher localJobs_class_1 4
scalar FogSequentialForward.fog[1].dispatcher droppedJobsSLA_class_1 16305
scalar FogSequentialForward.fog[1].server[0] rho 0.00061674846801907
scalar FogSequentialForward.fog[1].server[0] congestionRatio 0
scalar FogSequentialForward.fog[1].server[0] totalJobs 4
scalar FogSequentialForward.fog[1].server[0] droppedJobsQueue 0
scalar FogSequentialForward.fog[1].server[0] droppedJobsTimout 0
scalar FogSequentialForward.fog[1].server[0] droppedJobsSLA 0
scalar FogSequentialForward.fog[1].server[0] droppedJobsTotal 0
scalar FogSequentialForward.fog[2].dispatcher localJobs 2
scalar FogSequentialForward.fog[2].dispatcher internalJobs 16285
scalar FogSequentialForward.fog[2].dispatcher externalJobs 16207826
scalar FogSequentialForward.fog[2].dispatcher remoteJobs 16207930
scalar FogSequentialForward.fog[2].dispatcher probeQueries 0
scalar FogSequentialForward.fog[2].dispatcher probeAnswers 0
scalar FogSequentialForward.fog[2].dispatcher droppedJobsSLA 16179
scalar FogSequentialForward.fog[2].dispatcher jobs_class_1 16224111
scalar FogSequentialForward.fog[2].dispatcher remoteJobs_class_1 16207930
scalar FogSequentialForward.fog[2].dispatcher localJobs_class_1 2
scalar FogSequentialForward.fog[2].dispatcher droppedJobsSLA_class_1 16179
scalar FogSequentialForward.fog[2].server[0] rho 0.0003053649852518
scalar FogSequentialForward.fog[2].server[0] congestionRatio 0
scalar FogSequentialForward.fog[2].server[0] totalJobs 2
scalar FogSequentialForward.fog[2].server[0] droppedJobsQueue 0
scalar FogSequentialForward.fog[2].server[0] droppedJobsTimout 0
scalar FogSequentialForward.fog[2].server[0] droppedJobsSLA 0
scalar FogSequentialForward.fog[2].server[0] droppedJobsTotal 0
scalar FogSequentialForward.fog[3].dispatcher localJobs 9
scalar FogSequentialForward.fog[3].dispatcher internalJobs 16381
scalar FogSequentialForward.fog[3].dispatcher externalJobs 16206887
scalar FogSequentialForward.fog[3].dispatcher remoteJobs 16207114
scalar FogSequentialForward.fog[3].dispatcher probeQueries 0
scalar FogSequentialForward.fog[3].dispatcher probeAnswers 0
scalar FogSequentialForward.fog[3].dispatcher droppedJobsSLA 16145
scalar FogSequentialForward.fog[3].dispatcher jobs_class_1 16223268
scalar FogSequentialForward.fog[3].dispatcher remoteJobs_class_1 16207114
scalar FogSequentialForward.fog[3].dispatcher localJobs_class_1 9
scalar FogSequentialForward.fog[3].dispatcher droppedJobsSLA_class_1 16145
scalar FogSequentialForward.fog[3].server[0] rho 0.0013793190009892
scalar FogSequentialForward.fog[3].server[0] congestionRatio 0
scalar FogSequentialForward.fog[3].server[0] totalJobs 9
scalar FogSequentialForward.fog[3].server[0] droppedJobsQueue 0
scalar FogSequentialForward.fog[3].server[0] droppedJobsTimout 0
scalar FogSequentialForward.fog[3].server[0] droppedJobsSLA 0
scalar FogSequentialForward.fog[3].server[0] droppedJobsTotal 0
scalar FogSequentialForward.fog[4].dispatcher localJobs 5
scalar FogSequentialForward.fog[4].dispatcher internalJobs 16061
scalar FogSequentialForward.fog[4].dispatcher externalJobs 16203140
scalar FogSequentialForward.fog[4].dispatcher remoteJobs 16202753
scalar FogSequentialForward.fog[4].dispatcher probeQueries 0
scalar FogSequentialForward.fog[4].dispatcher probeAnswers 0
scalar FogSequentialForward.fog[4].dispatcher droppedJobsSLA 16443
scalar FogSequentialForward.fog[4].dispatcher jobs_class_1 16219201
scalar FogSequentialForward.fog[4].dispatcher remoteJobs_class_1 16202753
scalar FogSequentialForward.fog[4].dispatcher localJobs_class_1 5
scalar FogSequentialForward.fog[4].dispatcher droppedJobsSLA_class_1 16443
scalar FogSequentialForward.fog[4].server[0] rho 0.00077490310650319
scalar FogSequentialForward.fog[4].server[0] congestionRatio 0
scalar FogSequentialForward.fog[4].server[0] totalJobs 5
scalar FogSequentialForward.fog[4].server[0] droppedJobsQueue 0
scalar FogSequentialForward.fog[4].server[0] droppedJobsTimout 0
scalar FogSequentialForward.fog[4].server[0] droppedJobsSLA 0
scalar FogSequentialForward.fog[4].server[0] droppedJobsTotal 0
scalar FogSequentialForward.fog[5].dispatcher localJobs 3
scalar FogSequentialForward.fog[5].dispatcher internalJobs 16242
scalar FogSequentialForward.fog[5].dispatcher externalJobs 16203863
scalar FogSequentialForward.fog[5].dispatcher remoteJobs 16204089
scalar FogSequentialForward.fog[5].dispatcher probeQueries 0
scalar FogSequentialForward.fog[5].dispatcher probeAnswers 0
scalar FogSequentialForward.fog[5].dispatcher droppedJobsSLA 16013
scalar FogSequentialForward.fog[5].dispatcher jobs_class_1 16220105
scalar FogSequentialForward.fog[5].dispatcher remoteJobs_class_1 16204089
scalar FogSequentialForward.fog[5].dispatcher localJobs_class_1 3
scalar FogSequentialForward.fog[5].dispatcher droppedJobsSLA_class_1 16013
scalar FogSequentialForward.fog[5].server[0] rho 0.00045903684804216
scalar FogSequentialForward.fog[5].server[0] congestionRatio 0
scalar FogSequentialForward.fog[5].server[0] totalJobs 3
scalar FogSequentialForward.fog[5].server[0] droppedJobsQueue 0
scalar FogSequentialForward.fog[5].server[0] droppedJobsTimout 0
scalar FogSequentialForward.fog[5].server[0] droppedJobsSLA 0
scalar FogSequentialForward.fog[5].server[0] droppedJobsTotal 0
scalar FogSequentialForward.fog[6].dispatcher localJobs 9
scalar FogSequentialForward.fog[6].dispatcher internalJobs 16156
scalar FogSequentialForward.fog[6].dispatcher externalJobs 16202956
scalar FogSequentialForward.fog[6].dispatcher remoteJobs 16202798
scalar FogSequentialForward.fog[6].dispatcher probeQueries 0
scalar FogSequentialForward.fog[6].dispatcher probeAnswers 0
scalar FogSequentialForward.fog[6].dispatcher droppedJobsSLA 16305
scalar FogSequentialForward.fog[6].dispatcher jobs_class_1 16219112
scalar FogSequentialForward.fog[6].dispatcher remoteJobs_class_1 16202798
scalar FogSequentialForward.fog[6].dispatcher localJobs_class_1 9
scalar FogSequentialForward.fog[6].dispatcher droppedJobsSLA_class_1 16305
scalar FogSequentialForward.fog[6].server[0] rho 0.0014048368902877
scalar FogSequentialForward.fog[6].server[0] congestionRatio 0
scalar FogSequentialForward.fog[6].server[0] totalJobs 9
scalar FogSequentialForward.fog[6].server[0] droppedJobsQueue 0
scalar FogSequentialForward.fog[6].server[0] droppedJobsTimout 0
scalar FogSequentialForward.fog[6].server[0] droppedJobsSLA 0
scalar FogSequentialForward.fog[6].server[0] droppedJobsTotal 0
scalar FogSequentialForward.fog[7].dispatcher localJobs 2
scalar FogSequentialForward.fog[7].dispatcher internalJobs 16101
scalar FogSequentialForward.fog[7].dispatcher externalJobs 16208258
scalar FogSequentialForward.fog[7].dispatcher remoteJobs 16208186
scalar FogSequentialForward.fog[7].dispatcher probeQueries 0
scalar FogSequentialForward.fog[7].dispatcher probeAnswers 0
scalar FogSequentialForward.fog[7].dispatcher droppedJobsSLA 16171
scalar FogSequentialForward.fog[7].dispatcher jobs_class_1 16224359
scalar FogSequentialForward.fog[7].dispatcher remoteJobs_class_1 16208186
scalar FogSequentialForward.fog[7].dispatcher localJobs_class_1 2
scalar FogSequentialForward.fog[7].dispatcher droppedJobsSLA_class_1 16171
scalar FogSequentialForward.fog[7].server[0] rho 0.00030382175464183
scalar FogSequentialForward.fog[7].server[0] congestionRatio 0
scalar FogSequentialForward.fog[7].server[0] totalJobs 2
scalar FogSequentialForward.fog[7].server[0] droppedJobsQueue 0
scalar FogSequentialForward.fog[7].server[0] droppedJobsTimout 0
scalar FogSequentialForward.fog[7].server[0] droppedJobsSLA 0
scalar FogSequentialForward.fog[7].server[0] droppedJobsTotal 0
scalar FogSequentialForward.fog[8].dispatcher localJobs 5
scalar FogSequentialForward.fog[8].dispatcher internalJobs 16542
scalar FogSequentialForward.fog[8].dispatcher externalJobs 16204599
scalar FogSequentialForward.fog[8].dispatcher remoteJobs 16205041
scalar FogSequentialForward.fog[8].dispatcher probeQueries 0
scalar FogSequentialForward.fog[8].dispatcher probeAnswers 0
scalar FogSequentialForward.fog[8].dispatcher droppedJobsSLA 16095
scalar FogSequentialForward.fog[8].dispatcher jobs_class_1 16221141
scalar FogSequentialForward.fog[8].dispatcher remoteJobs_class_1 16205041
scalar FogSequentialForward.fog[8].dispatcher localJobs_class_1 5
scalar FogSequentialForward.fog[8].dispatcher droppedJobsSLA_class_1 16095
scalar FogSequentialForward.fog[8].server[0] rho 0.00077419850276783
scalar FogSequentialForward.fog[8].server[0] congestionRatio 0
scalar FogSequentialForward.fog[8].server[0] totalJobs 5
scalar FogSequentialForward.fog[8].server[0] droppedJobsQueue 0
scalar FogSequentialForward.fog[8].server[0] droppedJobsTimout 0
scalar FogSequentialForward.fog[8].server[0] droppedJobsSLA 0
scalar FogSequentialForward.fog[8].server[0] droppedJobsTotal 0
scalar FogSequentialForward.fog[9].dispatcher localJobs 3
scalar FogSequentialForward.fog[9].dispatcher internalJobs 16449
scalar FogSequentialForward.fog[9].dispatcher externalJobs 16204702
scalar FogSequentialForward.fog[9].dispatcher remoteJobs 16204899
scalar FogSequentialForward.fog[9].dispatcher probeQueries 0
scalar FogSequentialForward.fog[9].dispatcher probeAnswers 0
scalar FogSequentialForward.fog[9].dispatcher droppedJobsSLA 16249
scalar FogSequentialForward.fog[9].dispatcher jobs_class_1 16221151
scalar FogSequentialForward.fog[9].dispatcher remoteJobs_class_1 16204899
scalar FogSequentialForward.fog[9].dispatcher localJobs_class_1 3
scalar FogSequentialForward.fog[9].dispatcher droppedJobsSLA_class_1 16249
scalar FogSequentialForward.fog[9].server[0] rho 0.00045397429494187
scalar FogSequentialForward.fog[9].server[0] congestionRatio 0
scalar FogSequentialForward.fog[9].server[0] totalJobs 3
scalar FogSequentialForward.fog[9].server[0] droppedJobsQueue 0
scalar FogSequentialForward.fog[9].server[0] droppedJobsTimout 0
scalar FogSequentialForward.fog[9].server[0] droppedJobsSLA 0
scalar FogSequentialForward.fog[9].server[0] droppedJobsTotal 0
scalar FogSequentialForward.fog[10].dispatcher localJobs 4
scalar FogSequentialForward.fog[10].dispatcher internalJobs 16374
scalar FogSequentialForward.fog[10].dispatcher externalJobs 16205283
scalar FogSequentialForward.fog[10].dispatcher remoteJobs 16205396
scalar FogSequentialForward.fog[10].dispatcher probeQueries 0
scalar FogSequentialForward.fog[10].dispatcher probeAnswers 0
scalar FogSequentialForward.fog[10].dispatcher droppedJobsSLA 16257
scalar FogSequentialForward.fog[10].dispatcher jobs_class_1 16221657
scalar FogSequentialForward.fog[10].dispatcher remoteJobs_class_1 16205396
scalar FogSequentialForward.fog[10].dispatcher localJobs_class_1 4
scalar FogSequentialForward.fog[10].dispatcher droppedJobsSLA_class_1 16257
scalar FogSequentialForward.fog[10].server[0] rho 0.00062622589757666
scalar FogSequentialForward.fog[10].server[0] congestionRatio 0
scalar FogSequentialForward.fog[10].server[0] totalJobs 4
scalar FogSequentialForward.fog[10].server[0] droppedJobsQueue 0
scalar FogSequentialForward.fog[10].server[0] droppedJobsTimout 0
scalar FogSequentialForward.fog[10].server[0] droppedJobsSLA 0
scalar FogSequentialForward.fog[10].server[0] droppedJobsTotal 0
scalar FogSequentialForward.fog[11].dispatcher localJobs 1
scalar FogSequentialForward.fog[11].dispatcher internalJobs 16236
scalar FogSequentialForward.fog[11].dispatcher externalJobs 16203628
scalar FogSequentialForward.fog[11].dispatcher remoteJobs 16203692
scalar FogSequentialForward.fog[11].dispatcher probeQueries 0
scalar FogSequentialForward.fog[11].dispatcher probeAnswers 0
scalar FogSequentialForward.fog[11].dispatcher droppedJobsSLA 16171
scalar FogSequentialForward.fog[11].dispatcher jobs_class_1 16219864
scalar FogSequentialForward.fog[11].dispatcher remoteJobs_class_1 16203692
scalar FogSequentialForward.fog[11].dispatcher localJobs_class_1 1
scalar FogSequentialForward.fog[11].dispatcher droppedJobsSLA_class_1 16171
scalar FogSequentialForward.fog[11].server[0] rho 0.00014933379134163
scalar FogSequentialForward.fog[11].server[0] congestionRatio 0
scalar FogSequentialForward.fog[11].server[0] totalJobs 1
scalar FogSequentialForward.fog[11].server[0] droppedJobsQueue 0
scalar FogSequentialForward.fog[11].server[0] droppedJobsTimout 0
scalar FogSequentialForward.fog[11].server[0] droppedJobsSLA 0
scalar FogSequentialForward.fog[11].server[0] droppedJobsTotal 0
scalar FogSequentialForward.fog[12].dispatcher localJobs 6
scalar FogSequentialForward.fog[12].dispatcher internalJobs 16084
scalar FogSequentialForward.fog[12].dispatcher externalJobs 16210764
scalar FogSequentialForward.fog[12].dispatcher remoteJobs 16210577
scalar FogSequentialForward.fog[12].dispatcher probeQueries 0
scalar FogSequentialForward.fog[12].dispatcher probeAnswers 0
scalar FogSequentialForward.fog[12].dispatcher droppedJobsSLA 16265
scalar FogSequentialForward.fog[12].dispatcher jobs_class_1 16226848
scalar FogSequentialForward.fog[12].dispatcher remoteJobs_class_1 16210577
scalar FogSequentialForward.fog[12].dispatcher localJobs_class_1 6
scalar FogSequentialForward.fog[12].dispatcher droppedJobsSLA_class_1 16265
scalar FogSequentialForward.fog[12].server[0] rho 0.00092500750906765
scalar FogSequentialForward.fog[12].server[0] congestionRatio 0
scalar FogSequentialForward.fog[12].server[0] totalJobs 6
scalar FogSequentialForward.fog[12].server[0] droppedJobsQueue 0
scalar FogSequentialForward.fog[12].server[0] droppedJobsTimout 0
scalar FogSequentialForward.fog[12].server[0] droppedJobsSLA 0
scalar FogSequentialForward.fog[12].server[0] droppedJobsTotal 0
scalar FogSequentialForward.fog[13].dispatcher localJobs 4
scalar FogSequentialForward.fog[13].dispatcher internalJobs 16167
scalar FogSequentialForward.fog[13].dispatcher externalJobs 16210161
scalar FogSequentialForward.fog[13].dispatcher remoteJobs 16210215
scalar FogSequentialForward.fog[13].dispatcher probeQueries 0
scalar FogSequentialForward.fog[13].dispatcher probeAnswers 0
scalar FogSequentialForward.fog[13].dispatcher droppedJobsSLA 16109
scalar FogSequentialForward.fog[13].dispatcher jobs_class_1 16226328
scalar FogSequentialForward.fog[13].dispatcher remoteJobs_class_1 16210215
scalar FogSequentialForward.fog[13].dispatcher localJobs_class_1 4
scalar FogSequentialForward.fog[13].dispatcher droppedJobsSLA_class_1 16109
scalar FogSequentialForward.fog[13].server[0] rho 0.00062167452415451
scalar FogSequentialForward.fog[13].server[0] congestionRatio 0
scalar FogSequentialForward.fog[13].server[0] totalJobs 4
scalar FogSequentialForward.fog[13].server[0] droppedJobsQueue 0
scalar FogSequentialForward.fog[13].server[0] droppedJobsTimout 0
scalar FogSequentialForward.fog[13].server[0] droppedJobsSLA 0
scalar FogSequentialForward.fog[13].server[0] droppedJobsTotal 0
scalar FogSequentialForward.fog[14].dispatcher localJobs 3
scalar FogSequentialForward.fog[14].dispatcher internalJobs 16393
scalar FogSequentialForward.fog[14].dispatcher externalJobs 16208137
scalar FogSequentialForward.fog[14].dispatcher remoteJobs 16208431
scalar FogSequentialForward.fog[14].dispatcher probeQueries 0
scalar FogSequentialForward.fog[14].dispatcher probeAnswers 0
scalar FogSequentialForward.fog[14].dispatcher droppedJobsSLA 16096
scalar FogSequentialForward.fog[14].dispatcher jobs_class_1 16224530
scalar FogSequentialForward.fog[14].dispatcher remoteJobs_class_1 16208431
scalar FogSequentialForward.fog[14].dispatcher localJobs_class_1 3
scalar FogSequentialForward.fog[14].dispatcher droppedJobsSLA_class_1 16096
scalar FogSequentialForward.fog[14].server[0] rho 0.00045663499622606
scalar FogSequentialForward.fog[14].server[0] congestionRatio 0
scalar FogSequentialForward.fog[14].server[0] totalJobs 3
scalar FogSequentialForward.fog[14].server[0] droppedJobsQueue 0
scalar FogSequentialForward.fog[14].server[0] droppedJobsTimout 0
scalar FogSequentialForward.fog[14].server[0] droppedJobsSLA 0
scalar FogSequentialForward.fog[14].server[0] droppedJobsTotal 0
scalar FogSequentialForward.fog[15].dispatcher localJobs 4
scalar FogSequentialForward.fog[15].dispatcher internalJobs 16171
scalar FogSequentialForward.fog[15].dispatcher externalJobs 16201347
scalar FogSequentialForward.fog[15].dispatcher remoteJobs 16201229
scalar FogSequentialForward.fog[15].dispatcher probeQueries 0
scalar FogSequentialForward.fog[15].dispatcher probeAnswers 0
scalar FogSequentialForward.fog[15].dispatcher droppedJobsSLA 16285
scalar FogSequentialForward.fog[15].dispatcher jobs_class_1 16217518
scalar FogSequentialForward.fog[15].dispatcher remoteJobs_class_1 16201229
scalar FogSequentialForward.fog[15].dispatcher localJobs_class_1 4
scalar FogSequentialForward.fog[15].dispatcher droppedJobsSLA_class_1 16285
scalar FogSequentialForward.fog[15].server[0] rho 0.00060947262682021
scalar FogSequentialForward.fog[15].server[0] congestionRatio 0
scalar FogSequentialForward.fog[15].server[0] totalJobs 4
scalar FogSequentialForward.fog[15].server[0] droppedJobsQueue 0
scalar FogSequentialForward.fog[15].server[0] droppedJobsTimout 0
scalar FogSequentialForward.fog[15].server[0] droppedJobsSLA 0
scalar FogSequentialForward.fog[15].server[0] droppedJobsTotal 0
scalar FogSequentialForward.fog[16].dispatcher localJobs 2
scalar FogSequentialForward.fog[16].dispatcher internalJobs 16245
scalar FogSequentialForward.fog[16].dispatcher externalJobs 16212731
scalar FogSequentialForward.fog[16].dispatcher remoteJobs 16212981
scalar FogSequentialForward.fog[16].dispatcher probeQueries 0
scalar FogSequentialForward.fog[16].dispatcher probeAnswers 0
scalar FogSequentialForward.fog[16].dispatcher droppedJobsSLA 15993
scalar FogSequentialForward.fog[16].dispatcher jobs_class_1 16228976
scalar FogSequentialForward.fog[16].dispatcher remoteJobs_class_1 16212981
scalar FogSequentialForward.fog[16].dispatcher localJobs_class_1 2
scalar FogSequentialForward.fog[16].dispatcher droppedJobsSLA_class_1 15993
scalar FogSequentialForward.fog[16].server[0] rho 0.00030777565552853
scalar FogSequentialForward.fog[16].server[0] congestionRatio 0
scalar FogSequentialForward.fog[16].server[0] totalJobs 2
scalar FogSequentialForward.fog[16].server[0] droppedJobsQueue 0
scalar FogSequentialForward.fog[16].server[0] droppedJobsTimout 0
scalar FogSequentialForward.fog[16].server[0] droppedJobsSLA 0
scalar FogSequentialForward.fog[16].server[0] droppedJobsTotal 0
scalar FogSequentialForward.fog[17].dispatcher localJobs 6
scalar FogSequentialForward.fog[17].dispatcher internalJobs 16039
scalar FogSequentialForward.fog[17].dispatcher externalJobs 16199267
scalar FogSequentialForward.fog[17].dispatcher remoteJobs 16199320
scalar FogSequentialForward.fog[17].dispatcher probeQueries 0
scalar FogSequentialForward.fog[17].dispatcher probeAnswers 0
scalar FogSequentialForward.fog[17].dispatcher droppedJobsSLA 15980
scalar FogSequentialForward.fog[17].dispatcher jobs_class_1 16215306
scalar FogSequentialForward.fog[17].dispatcher remoteJobs_class_1 16199320
scalar FogSequentialForward.fog[17].dispatcher localJobs_class_1 6
scalar FogSequentialForward.fog[17].dispatcher droppedJobsSLA_class_1 15980
scalar FogSequentialForward.fog[17].server[0] rho 0.00093106360873207
scalar FogSequentialForward.fog[17].server[0] congestionRatio 0
scalar FogSequentialForward.fog[17].server[0] totalJobs 6
scalar FogSequentialForward.fog[17].server[0] droppedJobsQueue 0
scalar FogSequentialForward.fog[17].server[0] droppedJobsTimout 0
scalar FogSequentialForward.fog[17].server[0] droppedJobsSLA 0
scalar FogSequentialForward.fog[17].server[0] droppedJobsTotal 0
scalar FogSequentialForward.fog[18].dispatcher localJobs 4
scalar FogSequentialForward.fog[18].dispatcher internalJobs 15931
scalar FogSequentialForward.fog[18].dispatcher externalJobs 16210825
scalar FogSequentialForward.fog[18].dispatcher remoteJobs 16210410
scalar FogSequentialForward.fog[18].dispatcher probeQueries 0
scalar FogSequentialForward.fog[18].dispatcher probeAnswers 0
scalar FogSequentialForward.fog[18].dispatcher droppedJobsSLA 16342
scalar FogSequentialForward.fog[18].dispatcher jobs_class_1 16226756
scalar FogSequentialForward.fog[18].dispatcher remoteJobs_class_1 16210410
scalar FogSequentialForward.fog[18].dispatcher localJobs_class_1 4
scalar FogSequentialForward.fog[18].dispatcher droppedJobsSLA_class_1 16342
scalar FogSequentialForward.fog[18].server[0] rho 0.00061291467864066
scalar FogSequentialForward.fog[18].server[0] congestionRatio 0
scalar FogSequentialForward.fog[18].server[0] totalJobs 4
scalar FogSequentialForward.fog[18].server[0] droppedJobsQueue 0
scalar FogSequentialForward.fog[18].server[0] droppedJobsTimout 0
scalar FogSequentialForward.fog[18].server[0] droppedJobsSLA 0
scalar FogSequentialForward.fog[18].server[0] droppedJobsTotal 0
scalar FogSequentialForward.fog[19].dispatcher localJobs 3
scalar FogSequentialForward.fog[19].dispatcher internalJobs 16358
scalar FogSequentialForward.fog[19].dispatcher externalJobs 16207261
scalar FogSequentialForward.fog[19].dispatcher remoteJobs 16207347
scalar FogSequentialForward.fog[19].dispatcher probeQueries 0
scalar FogSequentialForward.fog[19].dispatcher probeAnswers 0
scalar FogSequentialForward.fog[19].dispatcher droppedJobsSLA 16269
scalar FogSequentialForward.fog[19].dispatcher jobs_class_1 16223619
scalar FogSequentialForward.fog[19].dispatcher remoteJobs_class_1 16207347
scalar FogSequentialForward.fog[19].dispatcher localJobs_class_1 3
scalar FogSequentialForward.fog[19].dispatcher droppedJobsSLA_class_1 16269
scalar FogSequentialForward.fog[19].server[0] rho 0.00047355087008327
scalar FogSequentialForward.fog[19].server[0] congestionRatio 0
scalar FogSequentialForward.fog[19].server[0] totalJobs 3
scalar FogSequentialForward.fog[19].server[0] droppedJobsQueue 0
scalar FogSequentialForward.fog[19].server[0] droppedJobsTimout 0
scalar FogSequentialForward.fog[19].server[0] droppedJobsSLA 0
scalar FogSequentialForward.fog[19].server[0] droppedJobsTotal 0
scalar FogSequentialForward.fog[20].dispatcher localJobs 4
scalar FogSequentialForward.fog[20].dispatcher internalJobs 16045
scalar FogSequentialForward.fog[20].dispatcher externalJobs 16196214
scalar FogSequentialForward.fog[20].dispatcher remoteJobs 16196184
scalar FogSequentialForward.fog[20].dispatcher probeQueries 0
scalar FogSequentialForward.fog[20].dispatcher probeAnswers 0
scalar FogSequentialForward.fog[20].dispatcher droppedJobsSLA 16071
scalar FogSequentialForward.fog[20].dispatcher jobs_class_1 16212259
scalar FogSequentialForward.fog[20].dispatcher remoteJobs_class_1 16196184
scalar FogSequentialForward.fog[20].dispatcher localJobs_class_1 4
scalar FogSequentialForward.fog[20].dispatcher droppedJobsSLA_class_1 16071
scalar FogSequentialForward.fog[20].server[0] rho 0.00062541296938434
scalar FogSequentialForward.fog[20].server[0] congestionRatio 0
scalar FogSequentialForward.fog[20].server[0] totalJobs 4
scalar FogSequentialForward.fog[20].server[0] droppedJobsQueue 0
scalar FogSequentialForward.fog[20].server[0] droppedJobsTimout 0
scalar FogSequentialForward.fog[20].server[0] droppedJobsSLA 0
scalar FogSequentialForward.fog[20].server[0] droppedJobsTotal 0
scalar FogSequentialForward.fog[21].dispatcher localJobs 3
scalar FogSequentialForward.fog[21].dispatcher internalJobs 16279
scalar FogSequentialForward.fog[21].dispatcher externalJobs 16204166
scalar FogSequentialForward.fog[21].dispatcher remoteJobs 16204199
scalar FogSequentialForward.fog[21].dispatcher probeQueries 0
scalar FogSequentialForward.fog[21].dispatcher probeAnswers 0
scalar FogSequentialForward.fog[21].dispatcher droppedJobsSLA 16243
scalar FogSequentialForward.fog[21].dispatcher jobs_class_1 16220445
scalar FogSequentialForward.fog[21].dispatcher remoteJobs_class_1 16204199
scalar FogSequentialForward.fog[21].dispatcher localJobs_class_1 3
scalar FogSequentialForward.fog[21].dispatcher droppedJobsSLA_class_1 16243
scalar FogSequentialForward.fog[21].server[0] rho 0.00045424539712258
scalar FogSequentialForward.fog[21].server[0] congestionRatio 0
scalar FogSequentialForward.fog[21].server[0] totalJobs 3
scalar FogSequentialForward.fog[21].server[0] droppedJobsQueue 0
scalar FogSequentialForward.fog[21].server[0] droppedJobsTimout 0
scalar FogSequentialForward.fog[21].server[0] droppedJobsSLA 0
scalar FogSequentialForward.fog[21].server[0] droppedJobsTotal 0
scalar FogSequentialForward.fog[22].dispatcher localJobs 3
scalar FogSequentialForward.fog[22].dispatcher internalJobs 16285
scalar FogSequentialForward.fog[22].dispatcher externalJobs 16210419
scalar FogSequentialForward.fog[22].dispatcher remoteJobs 16210376
scalar FogSequentialForward.fog[22].dispatcher probeQueries 0
scalar FogSequentialForward.fog[22].dispatcher probeAnswers 0
scalar FogSequentialForward.fog[22].dispatcher droppedJobsSLA 16325
scalar FogSequentialForward.fog[22].dispatcher jobs_class_1 16226704
scalar FogSequentialForward.fog[22].dispatcher remoteJobs_class_1 16210376
scalar FogSequentialForward.fog[22].dispatcher localJobs_class_1 3
scalar FogSequentialForward.fog[22].dispatcher droppedJobsSLA_class_1 16325
scalar FogSequentialForward.fog[22].server[0] rho 0.00045438919914886
scalar FogSequentialForward.fog[22].server[0] congestionRatio 0
scalar FogSequentialForward.fog[22].server[0] totalJobs 3
scalar FogSequentialForward.fog[22].server[0] droppedJobsQueue 0
scalar FogSequentialForward.fog[22].server[0] droppedJobsTimout 0
scalar FogSequentialForward.fog[22].server[0] droppedJobsSLA 0
scalar FogSequentialForward.fog[22].server[0] droppedJobsTotal 0
scalar FogSequentialForward.fog[23].dispatcher localJobs 3
scalar FogSequentialForward.fog[23].dispatcher internalJobs 16350
scalar FogSequentialForward.fog[23].dispatcher externalJobs 16206250
scalar FogSequentialForward.fog[23].dispatcher remoteJobs 16206305
scalar FogSequentialForward.fog[23].dispatcher probeQueries 0
scalar FogSequentialForward.fog[23].dispatcher probeAnswers 0
scalar FogSequentialForward.fog[23].dispatcher droppedJobsSLA 16292
scalar FogSequentialForward.fog[23].dispatcher jobs_class_1 16222600
scalar FogSequentialForward.fog[23].dispatcher remoteJobs_class_1 16206305
scalar FogSequentialForward.fog[23].dispatcher localJobs_class_1 3
scalar FogSequentialForward.fog[23].dispatcher droppedJobsSLA_class_1 16292
scalar FogSequentialForward.fog[23].server[0] rho 0.00046510016545653
scalar FogSequentialForward.fog[23].server[0] congestionRatio 0
scalar FogSequentialForward.fog[23].server[0] totalJobs 3
scalar FogSequentialForward.fog[23].server[0] droppedJobsQueue 0
scalar FogSequentialForward.fog[23].server[0] droppedJobsTimout 0
scalar FogSequentialForward.fog[23].server[0] droppedJobsSLA 0
scalar FogSequentialForward.fog[23].server[0] droppedJobsTotal 0
scalar FogSequentialForward.fog[24].dispatcher localJobs 3
scalar FogSequentialForward.fog[24].dispatcher internalJobs 16175
scalar FogSequentialForward.fog[24].dispatcher externalJobs 16206769
scalar FogSequentialForward.fog[24].dispatcher remoteJobs 16206926
scalar FogSequentialForward.fog[24].dispatcher probeQueries 0
scalar FogSequentialForward.fog[24].dispatcher probeAnswers 0
scalar FogSequentialForward.fog[24].dispatcher droppedJobsSLA 16015
scalar FogSequentialForward.fog[24].dispatcher jobs_class_1 16222944
scalar FogSequentialForward.fog[24].dispatcher remoteJobs_class_1 16206926
scalar FogSequentialForward.fog[24].dispatcher localJobs_class_1 3
scalar FogSequentialForward.fog[24].dispatcher droppedJobsSLA_class_1 16015
scalar FogSequentialForward.fog[24].server[0] rho 0.0004690827045124
scalar FogSequentialForward.fog[24].server[0] congestionRatio 0
scalar FogSequentialForward.fog[24].server[0] totalJobs 3
scalar FogSequentialForward.fog[24].server[0] droppedJobsQueue 0
scalar FogSequentialForward.fog[24].server[0] droppedJobsTimout 0
scalar FogSequentialForward.fog[24].server[0] droppedJobsSLA 0
scalar FogSequentialForward.fog[24].server[0] droppedJobsTotal 0
scalar FogSequentialForward.fog[25].dispatcher localJobs 3
scalar FogSequentialForward.fog[25].dispatcher internalJobs 16221
scalar FogSequentialForward.fog[25].dispatcher externalJobs 16206658
scalar FogSequentialForward.fog[25].dispatcher remoteJobs 16206613
scalar FogSequentialForward.fog[25].dispatcher probeQueries 0
scalar FogSequentialForward.fog[25].dispatcher probeAnswers 0
scalar FogSequentialForward.fog[25].dispatcher droppedJobsSLA 16263
scalar FogSequentialForward.fog[25].dispatcher jobs_class_1 16222879
scalar FogSequentialForward.fog[25].dispatcher remoteJobs_class_1 16206613
scalar FogSequentialForward.fog[25].dispatcher localJobs_class_1 3
scalar FogSequentialForward.fog[25].dispatcher droppedJobsSLA_class_1 16263
scalar FogSequentialForward.fog[25].server[0] rho 0.00045924517326057
scalar FogSequentialForward.fog[25].server[0] congestionRatio 0
scalar FogSequentialForward.fog[25].server[0] totalJobs 3
scalar FogSequentialForward.fog[25].server[0] droppedJobsQueue 0
scalar FogSequentialForward.fog[25].server[0] droppedJobsTimout 0
scalar FogSequentialForward.fog[25].server[0] droppedJobsSLA 0
scalar FogSequentialForward.fog[25].server[0] droppedJobsTotal 0
scalar FogSequentialForward.fog[26].dispatcher localJobs 4
scalar FogSequentialForward.fog[26].dispatcher internalJobs 16271
scalar FogSequentialForward.fog[26].dispatcher externalJobs 16203917
scalar FogSequentialForward.fog[26].dispatcher remoteJobs 16203988
scalar FogSequentialForward.fog[26].dispatcher probeQueries 0
scalar FogSequentialForward.fog[26].dispatcher probeAnswers 0
scalar FogSequentialForward.fog[26].dispatcher droppedJobsSLA 16196
scalar FogSequentialForward.fog[26].dispatcher jobs_class_1 16220188
scalar FogSequentialForward.fog[26].dispatcher remoteJobs_class_1 16203988
scalar FogSequentialForward.fog[26].dispatcher localJobs_class_1 4
scalar FogSequentialForward.fog[26].dispatcher droppedJobsSLA_class_1 16196
scalar FogSequentialForward.fog[26].server[0] rho 0.00061186909442768
scalar FogSequentialForward.fog[26].server[0] congestionRatio 0
scalar FogSequentialForward.fog[26].server[0] totalJobs 4
scalar FogSequentialForward.fog[26].server[0] droppedJobsQueue 0
scalar FogSequentialForward.fog[26].server[0] droppedJobsTimout 0
scalar FogSequentialForward.fog[26].server[0] droppedJobsSLA 0
scalar FogSequentialForward.fog[26].server[0] droppedJobsTotal 0
scalar FogSequentialForward.fog[27].dispatcher localJobs 5
scalar FogSequentialForward.fog[27].dispatcher internalJobs 16391
scalar FogSequentialForward.fog[27].dispatcher externalJobs 16207609
scalar FogSequentialForward.fog[27].dispatcher remoteJobs 16208015
scalar FogSequentialForward.fog[27].dispatcher probeQueries 0
scalar FogSequentialForward.fog[27].dispatcher probeAnswers 0
scalar FogSequentialForward.fog[27].dispatcher droppedJobsSLA 15980
scalar FogSequentialForward.fog[27].dispatcher jobs_class_1 16224000
scalar FogSequentialForward.fog[27].dispatcher remoteJobs_class_1 16208015
scalar FogSequentialForward.fog[27].dispatcher localJobs_class_1 5
scalar FogSequentialForward.fog[27].dispatcher droppedJobsSLA_class_1 15980
scalar FogSequentialForward.fog[27].server[0] rho 0.00076231401180848
scalar FogSequentialForward.fog[27].server[0] congestionRatio 0
scalar FogSequentialForward.fog[27].server[0] totalJobs 5
scalar FogSequentialForward.fog[27].server[0] droppedJobsQueue 0
scalar FogSequentialForward.fog[27].server[0] droppedJobsTimout 0
scalar FogSequentialForward.fog[27].server[0] droppedJobsSLA 0
scalar FogSequentialForward.fog[27].server[0] droppedJobsTotal 0
scalar FogSequentialForward.fog[28].dispatcher localJobs 7
scalar FogSequentialForward.fog[28].dispatcher internalJobs 16444
scalar FogSequentialForward.fog[28].dispatcher externalJobs 16199805
scalar FogSequentialForward.fog[28].dispatcher remoteJobs 16200137
scalar FogSequentialForward.fog[28].dispatcher probeQueries 0
scalar FogSequentialForward.fog[28].dispatcher probeAnswers 0
scalar FogSequentialForward.fog[28].dispatcher droppedJobsSLA 16105
scalar FogSequentialForward.fog[28].dispatcher jobs_class_1 16216249
scalar FogSequentialForward.fog[28].dispatcher remoteJobs_class_1 16200137
scalar FogSequentialForward.fog[28].dispatcher localJobs_class_1 7
scalar FogSequentialForward.fog[28].dispatcher droppedJobsSLA_class_1 16105
scalar FogSequentialForward.fog[28].server[0] rho 0.0010808965889737
scalar FogSequentialForward.fog[28].server[0] congestionRatio 0
scalar FogSequentialForward.fog[28].server[0] totalJobs 7
scalar FogSequentialForward.fog[28].server[0] droppedJobsQueue 0
scalar FogSequentialForward.fog[28].server[0] droppedJobsTimout 0
scalar FogSequentialForward.fog[28].server[0] droppedJobsSLA 0
scalar FogSequentialForward.fog[28].server[0] droppedJobsTotal 0
scalar FogSequentialForward.fog[29].dispatcher localJobs 3
scalar FogSequentialForward.fog[29].dispatcher internalJobs 15969
scalar FogSequentialForward.fog[29].dispatcher externalJobs 16202170
scalar FogSequentialForward.fog[29].dispatcher remoteJobs 16202120
scalar FogSequentialForward.fog[29].dispatcher probeQueries 0
scalar FogSequentialForward.fog[29].dispatcher probeAnswers 0
scalar FogSequentialForward.fog[29].dispatcher droppedJobsSLA 16016
scalar FogSequentialForward.fog[29].dispatcher jobs_class_1 16218139
scalar FogSequentialForward.fog[29].dispatcher remoteJobs_class_1 16202120
scalar FogSequentialForward.fog[29].dispatcher localJobs_class_1 3
scalar FogSequentialForward.fog[29].dispatcher droppedJobsSLA_class_1 16016
scalar FogSequentialForward.fog[29].server[0] rho 0.00045936697279103
scalar FogSequentialForward.fog[29].server[0] congestionRatio 0
scalar FogSequentialForward.fog[29].server[0] totalJobs 3
scalar FogSequentialForward.fog[29].server[0] droppedJobsQueue 0
scalar FogSequentialForward.fog[29].server[0] droppedJobsTimout 0
scalar FogSequentialForward.fog[29].server[0] droppedJobsSLA 0
scalar FogSequentialForward.fog[29].server[0] droppedJobsTotal 0
scalar FogSequentialForward.fog[30].dispatcher localJobs 4
scalar FogSequentialForward.fog[30].dispatcher internalJobs 16039
scalar FogSequentialForward.fog[30].dispatcher externalJobs 16204646
scalar FogSequentialForward.fog[30].dispatcher remoteJobs 16204599
scalar FogSequentialForward.fog[30].dispatcher probeQueries 0
scalar FogSequentialForward.fog[30].dispatcher probeAnswers 0
scalar FogSequentialForward.fog[30].dispatcher droppedJobsSLA 16082
scalar FogSequentialForward.fog[30].dispatcher jobs_class_1 16220685
scalar FogSequentialForward.fog[30].dispatcher remoteJobs_class_1 16204599
scalar FogSequentialForward.fog[30].dispatcher localJobs_class_1 4
scalar FogSequentialForward.fog[30].dispatcher droppedJobsSLA_class_1 16082
scalar FogSequentialForward.fog[30].server[0] rho 0.00060658698203042
scalar FogSequentialForward.fog[30].server[0] congestionRatio 0
scalar FogSequentialForward.fog[30].server[0] totalJobs 4
scalar FogSequentialForward.fog[30].server[0] droppedJobsQueue 0
scalar FogSequentialForward.fog[30].server[0] droppedJobsTimout 0
scalar FogSequentialForward.fog[30].server[0] droppedJobsSLA 0
scalar FogSequentialForward.fog[30].server[0] droppedJobsTotal 0
scalar FogSequentialForward.fog[31].dispatcher localJobs 3
scalar FogSequentialForward.fog[31].dispatcher internalJobs 16407
scalar FogSequentialForward.fog[31].dispatcher externalJobs 16209269
scalar FogSequentialForward.fog[31].dispatcher remoteJobs 16209441
scalar FogSequentialForward.fog[31].dispatcher probeQueries 0
scalar FogSequentialForward.fog[31].dispatcher probeAnswers 0
scalar FogSequentialForward.fog[31].dispatcher droppedJobsSLA 16232
scalar FogSequentialForward.fog[31].dispatcher jobs_class_1 16225676
scalar FogSequentialForward.fog[31].dispatcher remoteJobs_class_1 16209441
scalar FogSequentialForward.fog[31].dispatcher localJobs_class_1 3
scalar FogSequentialForward.fog[31].dispatcher droppedJobsSLA_class_1 16232
scalar FogSequentialForward.fog[31].server[0] rho 0.00046069064410403
scalar FogSequentialForward.fog[31].server[0] congestionRatio 0
scalar FogSequentialForward.fog[31].server[0] totalJobs 3
scalar FogSequentialForward.fog[31].server[0] droppedJobsQueue 0
scalar FogSequentialForward.fog[31].server[0] droppedJobsTimout 0
scalar FogSequentialForward.fog[31].server[0] droppedJobsSLA 0
scalar FogSequentialForward.fog[31].server[0] droppedJobsTotal 0
scalar FogSequentialForward.fog[32].dispatcher localJobs 3
scalar FogSequentialForward.fog[32].dispatcher internalJobs 16125
scalar FogSequentialForward.fog[32].dispatcher externalJobs 16209022
scalar FogSequentialForward.fog[32].dispatcher remoteJobs 16208895
scalar FogSequentialForward.fog[32].dispatcher probeQueries 0
scalar FogSequentialForward.fog[32].dispatcher probeAnswers 0
scalar FogSequentialForward.fog[32].dispatcher droppedJobsSLA 16249
scalar FogSequentialForward.fog[32].dispatcher jobs_class_1 16225147
scalar FogSequentialForward.fog[32].dispatcher remoteJobs_class_1 16208895
scalar FogSequentialForward.fog[32].dispatcher localJobs_class_1 3
scalar FogSequentialForward.fog[32].dispatcher droppedJobsSLA_class_1 16249
scalar FogSequentialForward.fog[32].server[0] rho 0.00046858529094607
scalar FogSequentialForward.fog[32].server[0] congestionRatio 0
scalar FogSequentialForward.fog[32].server[0] totalJobs 3
scalar FogSequentialForward.fog[32].server[0] droppedJobsQueue 0
scalar FogSequentialForward.fog[32].server[0] droppedJobsTimout 0
scalar FogSequentialForward.fog[32].server[0] droppedJobsSLA 0
scalar FogSequentialForward.fog[32].server[0] droppedJobsTotal 0
scalar FogSequentialForward.fog[33].dispatcher localJobs 4
scalar FogSequentialForward.fog[33].dispatcher internalJobs 16086
scalar FogSequentialForward.fog[33].dispatcher externalJobs 16209239
scalar FogSequentialForward.fog[33].dispatcher remoteJobs 16209270
scalar FogSequentialForward.fog[33].dispatcher probeQueries 0
scalar FogSequentialForward.fog[33].dispatcher probeAnswers 0
scalar FogSequentialForward.fog[33].dispatcher droppedJobsSLA 16051
scalar FogSequentialForward.fog[33].dispatcher jobs_class_1 16225325
scalar FogSequentialForward.fog[33].dispatcher remoteJobs_class_1 16209270
scalar FogSequentialForward.fog[33].dispatcher localJobs_class_1 4
scalar FogSequentialForward.fog[33].dispatcher droppedJobsSLA_class_1 16051
scalar FogSequentialForward.fog[33].server[0] rho 0.00061056413687766
scalar FogSequentialForward.fog[33].server[0] congestionRatio 0
scalar FogSequentialForward.fog[33].server[0] totalJobs 4
scalar FogSequentialForward.fog[33].server[0] droppedJobsQueue 0
scalar FogSequentialForward.fog[33].server[0] droppedJobsTimout 0
scalar FogSequentialForward.fog[33].server[0] droppedJobsSLA 0
scalar FogSequentialForward.fog[33].server[0] droppedJobsTotal 0
scalar FogSequentialForward.fog[34].dispatcher localJobs 2
scalar FogSequentialForward.fog[34].dispatcher internalJobs 16324
scalar FogSequentialForward.fog[34].dispatcher externalJobs 16202034
scalar FogSequentialForward.fog[34].dispatcher remoteJobs 16201987
scalar FogSequentialForward.fog[34].dispatcher probeQueries 0
scalar FogSequentialForward.fog[34].dispatcher probeAnswers 0
scalar FogSequentialForward.fog[34].dispatcher droppedJobsSLA 16369
scalar FogSequentialForward.fog[34].dispatcher jobs_class_1 16218358
scalar FogSequentialForward.fog[34].dispatcher remoteJobs_class_1 16201987
scalar FogSequentialForward.fog[34].dispatcher localJobs_class_1 2
scalar FogSequentialForward.fog[34].dispatcher droppedJobsSLA_class_1 16369
scalar FogSequentialForward.fog[34].server[0] rho 0.00031797282281332
scalar FogSequentialForward.fog[34].server[0] congestionRatio 0
scalar FogSequentialForward.fog[34].server[0] totalJobs 2
scalar FogSequentialForward.fog[34].server[0] droppedJobsQueue 0
scalar FogSequentialForward.fog[34].server[0] droppedJobsTimout 0
scalar FogSequentialForward.fog[34].server[0] droppedJobsSLA 0
scalar FogSequentialForward.fog[34].server[0] droppedJobsTotal 0
scalar FogSequentialForward.fog[35].dispatcher localJobs 3
scalar FogSequentialForward.fog[35].dispatcher internalJobs 16098
scalar FogSequentialForward.fog[35].dispatcher externalJobs 16206472
scalar FogSequentialForward.fog[35].dispatcher remoteJobs 16206284
scalar FogSequentialForward.fog[35].dispatcher probeQueries 0
scalar FogSequentialForward.fog[35].dispatcher probeAnswers 0
scalar FogSequentialForward.fog[35].dispatcher droppedJobsSLA 16283
scalar FogSequentialForward.fog[35].dispatcher jobs_class_1 16222570
scalar FogSequentialForward.fog[35].dispatcher remoteJobs_class_1 16206284
scalar FogSequentialForward.fog[35].dispatcher localJobs_class_1 3
scalar FogSequentialForward.fog[35].dispatcher droppedJobsSLA_class_1 16283
scalar FogSequentialForward.fog[35].server[0] rho 0.00047305697808042
scalar FogSequentialForward.fog[35].server[0] congestionRatio 0
scalar FogSequentialForward.fog[35].server[0] totalJobs 3
scalar FogSequentialForward.fog[35].server[0] droppedJobsQueue 0
scalar FogSequentialForward.fog[35].server[0] droppedJobsTimout 0
scalar FogSequentialForward.fog[35].server[0] droppedJobsSLA 0
scalar FogSequentialForward.fog[35].server[0] droppedJobsTotal 0
scalar FogSequentialForward.fog[36].dispatcher localJobs 6
scalar FogSequentialForward.fog[36].dispatcher internalJobs 16175
scalar FogSequentialForward.fog[36].dispatcher externalJobs 16206113
scalar FogSequentialForward.fog[36].dispatcher remoteJobs 16206199
scalar FogSequentialForward.fog[36].dispatcher probeQueries 0
scalar FogSequentialForward.fog[36].dispatcher probeAnswers 0
scalar FogSequentialForward.fog[36].dispatcher droppedJobsSLA 16083
scalar FogSequentialForward.fog[36].dispatcher jobs_class_1 16222288
scalar FogSequentialForward.fog[36].dispatcher remoteJobs_class_1 16206199
scalar FogSequentialForward.fog[36].dispatcher localJobs_class_1 6
scalar FogSequentialForward.fog[36].dispatcher droppedJobsSLA_class_1 16083
scalar FogSequentialForward.fog[36].server[0] rho 0.00093760568415746
scalar FogSequentialForward.fog[36].server[0] congestionRatio 0
scalar FogSequentialForward.fog[36].server[0] totalJobs 6
scalar FogSequentialForward.fog[36].server[0] droppedJobsQueue 0
scalar FogSequentialForward.fog[36].server[0] droppedJobsTimout 0
scalar FogSequentialForward.fog[36].server[0] droppedJobsSLA 0
scalar FogSequentialForward.fog[36].server[0] droppedJobsTotal 0
scalar FogSequentialForward.fog[37].dispatcher localJobs 3
scalar FogSequentialForward.fog[37].dispatcher internalJobs 16193
scalar FogSequentialForward.fog[37].dispatcher externalJobs 16210021
scalar FogSequentialForward.fog[37].dispatcher remoteJobs 16210020
scalar FogSequentialForward.fog[37].dispatcher probeQueries 0
scalar FogSequentialForward.fog[37].dispatcher probeAnswers 0
scalar FogSequentialForward.fog[37].dispatcher droppedJobsSLA 16191
scalar FogSequentialForward.fog[37].dispatcher jobs_class_1 16226214
scalar FogSequentialForward.fog[37].dispatcher remoteJobs_class_1 16210020
scalar FogSequentialForward.fog[37].dispatcher localJobs_class_1 3
scalar FogSequentialForward.fog[37].dispatcher droppedJobsSLA_class_1 16191
scalar FogSequentialForward.fog[37].server[0] rho 0.0004661149578169
scalar FogSequentialForward.fog[37].server[0] congestionRatio 0
scalar FogSequentialForward.fog[37].server[0] totalJobs 3
scalar FogSequentialForward.fog[37].server[0] droppedJobsQueue 0
scalar FogSequentialForward.fog[37].server[0] droppedJobsTimout 0
scalar FogSequentialForward.fog[37].server[0] droppedJobsSLA 0
scalar FogSequentialForward.fog[37].server[0] droppedJobsTotal 0
scalar FogSequentialForward.fog[38].dispatcher localJobs 3
scalar FogSequentialForward.fog[38].dispatcher internalJobs 16340
scalar FogSequentialForward.fog[38].dispatcher externalJobs 16202781
scalar FogSequentialForward.fog[38].dispatcher remoteJobs 16202787
scalar FogSequentialForward.fog[38].dispatcher probeQueries 0
scalar FogSequentialForward.fog[38].dispatcher probeAnswers 0
scalar FogSequentialForward.fog[38].dispatcher droppedJobsSLA 16331
scalar FogSequentialForward.fog[38].dispatcher jobs_class_1 16219121
scalar FogSequentialForward.fog[38].dispatcher remoteJobs_class_1 16202787
scalar FogSequentialForward.fog[38].dispatcher localJobs_class_1 3
scalar FogSequentialForward.fog[38].dispatcher droppedJobsSLA_class_1 16331
scalar FogSequentialForward.fog[38].server[0] rho 0.00045701611088589
scalar FogSequentialForward.fog[38].server[0] congestionRatio 0
scalar FogSequentialForward.fog[38].server[0] totalJobs 3
scalar FogSequentialForward.fog[38].server[0] droppedJobsQueue 0
scalar FogSequentialForward.fog[38].server[0] droppedJobsTimout 0
scalar FogSequentialForward.fog[38].server[0] droppedJobsSLA 0
scalar FogSequentialForward.fog[38].server[0] droppedJobsTotal 0
scalar FogSequentialForward.fog[39].dispatcher localJobs 4
scalar FogSequentialForward.fog[39].dispatcher internalJobs 16132
scalar FogSequentialForward.fog[39].dispatcher externalJobs 16202319
scalar FogSequentialForward.fog[39].dispatcher remoteJobs 16202133
scalar FogSequentialForward.fog[39].dispatcher probeQueries 0
scalar FogSequentialForward.fog[39].dispatcher probeAnswers 0
scalar FogSequentialForward.fog[39].dispatcher droppedJobsSLA 16314
scalar FogSequentialForward.fog[39].dispatcher jobs_class_1 16218451
scalar FogSequentialForward.fog[39].dispatcher remoteJobs_class_1 16202133
scalar FogSequentialForward.fog[39].dispatcher localJobs_class_1 4
scalar FogSequentialForward.fog[39].dispatcher droppedJobsSLA_class_1 16314
scalar FogSequentialForward.fog[39].server[0] rho 0.00061470788205042
scalar FogSequentialForward.fog[39].server[0] congestionRatio 0
scalar FogSequentialForward.fog[39].server[0] totalJobs 4
scalar FogSequentialForward.fog[39].server[0] droppedJobsQueue 0
scalar FogSequentialForward.fog[39].server[0] droppedJobsTimout 0
scalar FogSequentialForward.fog[39].server[0] droppedJobsSLA 0
scalar FogSequentialForward.fog[39].server[0] droppedJobsTotal 0
scalar FogSequentialForward.fog[40].dispatcher localJobs 6
scalar FogSequentialForward.fog[40].dispatcher internalJobs 16236
scalar FogSequentialForward.fog[40].dispatcher externalJobs 16207427
scalar FogSequentialForward.fog[40].dispatcher remoteJobs 16207574
scalar FogSequentialForward.fog[40].dispatcher probeQueries 0
scalar FogSequentialForward.fog[40].dispatcher probeAnswers 0
scalar FogSequentialForward.fog[40].dispatcher droppedJobsSLA 16083
scalar FogSequentialForward.fog[40].dispatcher jobs_class_1 16223663
scalar FogSequentialForward.fog[40].dispatcher remoteJobs_class_1 16207574
scalar FogSequentialForward.fog[40].dispatcher localJobs_class_1 6
scalar FogSequentialForward.fog[40].dispatcher droppedJobsSLA_class_1 16083
scalar FogSequentialForward.fog[40].server[0] rho 0.00092826632317156
scalar FogSequentialForward.fog[40].server[0] congestionRatio 0
scalar FogSequentialForward.fog[40].server[0] totalJobs 6
scalar FogSequentialForward.fog[40].server[0] droppedJobsQueue 0
scalar FogSequentialForward.fog[40].server[0] droppedJobsTimout 0
scalar FogSequentialForward.fog[40].server[0] droppedJobsSLA 0
scalar FogSequentialForward.fog[40].server[0] droppedJobsTotal 0
scalar FogSequentialForward.fog[41].dispatcher localJobs 5
scalar FogSequentialForward.fog[41].dispatcher internalJobs 16389
scalar FogSequentialForward.fog[41].dispatcher externalJobs 16209580
scalar FogSequentialForward.fog[41].dispatcher remoteJobs 16209852
scalar FogSequentialForward.fog[41].dispatcher probeQueries 0
scalar FogSequentialForward.fog[41].dispatcher probeAnswers 0
scalar FogSequentialForward.fog[41].dispatcher droppedJobsSLA 16112
scalar FogSequentialForward.fog[41].dispatcher jobs_class_1 16225969
scalar FogSequentialForward.fog[41].dispatcher remoteJobs_class_1 16209852
scalar FogSequentialForward.fog[41].dispatcher localJobs_class_1 5
scalar FogSequentialForward.fog[41].dispatcher droppedJobsSLA_class_1 16112
scalar FogSequentialForward.fog[41].server[0] rho 0.00077408243669197
scalar FogSequentialForward.fog[41].server[0] congestionRatio 0
scalar FogSequentialForward.fog[41].server[0] totalJobs 5
scalar FogSequentialForward.fog[41].server[0] droppedJobsQueue 0
scalar FogSequentialForward.fog[41].server[0] droppedJobsTimout 0
scalar FogSequentialForward.fog[41].server[0] droppedJobsSLA 0
scalar FogSequentialForward.fog[41].server[0] droppedJobsTotal 0
scalar FogSequentialForward.fog[42].dispatcher localJobs 6
scalar FogSequentialForward.fog[42].dispatcher internalJobs 16200
scalar FogSequentialForward.fog[42].dispatcher externalJobs 16202839
scalar FogSequentialForward.fog[42].dispatcher remoteJobs 16202817
scalar FogSequentialForward.fog[42].dispatcher probeQueries 0
scalar FogSequentialForward.fog[42].dispatcher probeAnswers 0
scalar FogSequentialForward.fog[42].dispatcher droppedJobsSLA 16216
scalar FogSequentialForward.fog[42].dispatcher jobs_class_1 16219039
scalar FogSequentialForward.fog[42].dispatcher remoteJobs_class_1 16202817
scalar FogSequentialForward.fog[42].dispatcher localJobs_class_1 6
scalar FogSequentialForward.fog[42].dispatcher droppedJobsSLA_class_1 16216
scalar FogSequentialForward.fog[42].server[0] rho 0.00091973645612597
scalar FogSequentialForward.fog[42].server[0] congestionRatio 0
scalar FogSequentialForward.fog[42].server[0] totalJobs 6
scalar FogSequentialForward.fog[42].server[0] droppedJobsQueue 0
scalar FogSequentialForward.fog[42].server[0] droppedJobsTimout 0
scalar FogSequentialForward.fog[42].server[0] droppedJobsSLA 0
scalar FogSequentialForward.fog[42].server[0] droppedJobsTotal 0
scalar FogSequentialForward.fog[43].dispatcher localJobs 6
scalar FogSequentialForward.fog[43].dispatcher internalJobs 16108
scalar FogSequentialForward.fog[43].dispatcher externalJobs 16205515
scalar FogSequentialForward.fog[43].dispatcher remoteJobs 16205453
scalar FogSequentialForward.fog[43].dispatcher probeQueries 0
scalar FogSequentialForward.fog[43].dispatcher probeAnswers 0
scalar FogSequentialForward.fog[43].dispatcher droppedJobsSLA 16164
scalar FogSequentialForward.fog[43].dispatcher jobs_class_1 16221623
scalar FogSequentialForward.fog[43].dispatcher remoteJobs_class_1 16205453
scalar FogSequentialForward.fog[43].dispatcher localJobs_class_1 6
scalar FogSequentialForward.fog[43].dispatcher droppedJobsSLA_class_1 16164
scalar FogSequentialForward.fog[43].server[0] rho 0.00092021451564506
scalar FogSequentialForward.fog[43].server[0] congestionRatio 0
scalar FogSequentialForward.fog[43].server[0] totalJobs 6
scalar FogSequentialForward.fog[43].server[0] droppedJobsQueue 0
scalar FogSequentialForward.fog[43].server[0] droppedJobsTimout 0
scalar FogSequentialForward.fog[43].server[0] droppedJobsSLA 0
scalar FogSequentialForward.fog[43].server[0] droppedJobsTotal 0
scalar FogSequentialForward.fog[44].dispatcher localJobs 4
scalar FogSequentialForward.fog[44].dispatcher internalJobs 16517
scalar FogSequentialForward.fog[44].dispatcher externalJobs 16204587
scalar FogSequentialForward.fog[44].dispatcher remoteJobs 16204850
scalar FogSequentialForward.fog[44].dispatcher probeQueries 0
scalar FogSequentialForward.fog[44].dispatcher probeAnswers 0
scalar FogSequentialForward.fog[44].dispatcher droppedJobsSLA 16250
scalar FogSequentialForward.fog[44].dispatcher jobs_class_1 16221104
scalar FogSequentialForward.fog[44].dispatcher remoteJobs_class_1 16204850
scalar FogSequentialForward.fog[44].dispatcher localJobs_class_1 4
scalar FogSequentialForward.fog[44].dispatcher droppedJobsSLA_class_1 16250
scalar FogSequentialForward.fog[44].server[0] rho 0.00060371484141797
scalar FogSequentialForward.fog[44].server[0] congestionRatio 0
scalar FogSequentialForward.fog[44].server[0] totalJobs 4
scalar FogSequentialForward.fog[44].server[0] droppedJobsQueue 0
scalar FogSequentialForward.fog[44].server[0] droppedJobsTimout 0
scalar FogSequentialForward.fog[44].server[0] droppedJobsSLA 0
scalar FogSequentialForward.fog[44].server[0] droppedJobsTotal 0
scalar FogSequentialForward.fog[45].dispatcher localJobs 4
scalar FogSequentialForward.fog[45].dispatcher internalJobs 16182
scalar FogSequentialForward.fog[45].dispatcher externalJobs 16199365
scalar FogSequentialForward.fog[45].dispatcher remoteJobs 16199277
scalar FogSequentialForward.fog[45].dispatcher probeQueries 0
scalar FogSequentialForward.fog[45].dispatcher probeAnswers 0
scalar FogSequentialForward.fog[45].dispatcher droppedJobsSLA 16266
scalar FogSequentialForward.fog[45].dispatcher jobs_class_1 16215547
scalar FogSequentialForward.fog[45].dispatcher remoteJobs_class_1 16199277
scalar FogSequentialForward.fog[45].dispatcher localJobs_class_1 4
scalar FogSequentialForward.fog[45].dispatcher droppedJobsSLA_class_1 16266
scalar FogSequentialForward.fog[45].server[0] rho 0.00062981841620058
scalar FogSequentialForward.fog[45].server[0] congestionRatio 0
scalar FogSequentialForward.fog[45].server[0] totalJobs 4
scalar FogSequentialForward.fog[45].server[0] droppedJobsQueue 0
scalar FogSequentialForward.fog[45].server[0] droppedJobsTimout 0
scalar FogSequentialForward.fog[45].server[0] droppedJobsSLA 0
scalar FogSequentialForward.fog[45].server[0] droppedJobsTotal 0
scalar FogSequentialForward.fog[46].dispatcher localJobs 5
scalar FogSequentialForward.fog[46].dispatcher internalJobs 15961
scalar FogSequentialForward.fog[46].dispatcher externalJobs 16209814
scalar FogSequentialForward.fog[46].dispatcher remoteJobs 16209651
scalar FogSequentialForward.fog[46].dispatcher probeQueries 0
scalar FogSequentialForward.fog[46].dispatcher probeAnswers 0
scalar FogSequentialForward.fog[46].dispatcher droppedJobsSLA 16119
scalar FogSequentialForward.fog[46].dispatcher jobs_class_1 16225775
scalar FogSequentialForward.fog[46].dispatcher remoteJobs_class_1 16209651
scalar FogSequentialForward.fog[46].dispatcher localJobs_class_1 5
scalar FogSequentialForward.fog[46].dispatcher droppedJobsSLA_class_1 16119
scalar FogSequentialForward.fog[46].server[0] rho 0.00078445888357237
scalar FogSequentialForward.fog[46].server[0] congestionRatio 0
scalar FogSequentialForward.fog[46].server[0] totalJobs 5
scalar FogSequentialForward.fog[46].server[0] droppedJobsQueue 0
scalar FogSequentialForward.fog[46].server[0] droppedJobsTimout 0
scalar FogSequentialForward.fog[46].server[0] droppedJobsSLA 0
scalar FogSequentialForward.fog[46].server[0] droppedJobsTotal 0
scalar FogSequentialForward.fog[47].dispatcher localJobs 5
scalar FogSequentialForward.fog[47].dispatcher internalJobs 16405
scalar FogSequentialForward.fog[47].dispatcher externalJobs 16204176
scalar FogSequentialForward.fog[47].dispatcher remoteJobs 16204256
scalar FogSequentialForward.fog[47].dispatcher probeQueries 0
scalar FogSequentialForward.fog[47].dispatcher probeAnswers 0
scalar FogSequentialForward.fog[47].dispatcher droppedJobsSLA 16320
scalar FogSequentialForward.fog[47].dispatcher jobs_class_1 16220581
scalar FogSequentialForward.fog[47].dispatcher remoteJobs_class_1 16204256
scalar FogSequentialForward.fog[47].dispatcher localJobs_class_1 5
scalar FogSequentialForward.fog[47].dispatcher droppedJobsSLA_class_1 16320
scalar FogSequentialForward.fog[47].server[0] rho 0.00077173236059025
scalar FogSequentialForward.fog[47].server[0] congestionRatio 0
scalar FogSequentialForward.fog[47].server[0] totalJobs 5
scalar FogSequentialForward.fog[47].server[0] droppedJobsQueue 0
scalar FogSequentialForward.fog[47].server[0] droppedJobsTimout 0
scalar FogSequentialForward.fog[47].server[0] droppedJobsSLA 0
scalar FogSequentialForward.fog[47].server[0] droppedJobsTotal 0
scalar FogSequentialForward.fog[48].dispatcher localJobs 3
scalar FogSequentialForward.fog[48].dispatcher internalJobs 16391
scalar FogSequentialForward.fog[48].dispatcher externalJobs 16208950
scalar FogSequentialForward.fog[48].dispatcher remoteJobs 16209090
scalar FogSequentialForward.fog[48].dispatcher probeQueries 0
scalar FogSequentialForward.fog[48].dispatcher probeAnswers 0
scalar FogSequentialForward.fog[48].dispatcher droppedJobsSLA 16248
scalar FogSequentialForward.fog[48].dispatcher jobs_class_1 16225341
scalar FogSequentialForward.fog[48].dispatcher remoteJobs_class_1 16209090
scalar FogSequentialForward.fog[48].dispatcher localJobs_class_1 3
scalar FogSequentialForward.fog[48].dispatcher droppedJobsSLA_class_1 16248
scalar FogSequentialForward.fog[48].server[0] rho 0.0004583427507896
scalar FogSequentialForward.fog[48].server[0] congestionRatio 0
scalar FogSequentialForward.fog[48].server[0] totalJobs 3
scalar FogSequentialForward.fog[48].server[0] droppedJobsQueue 0
scalar FogSequentialForward.fog[48].server[0] droppedJobsTimout 0
scalar FogSequentialForward.fog[48].server[0] droppedJobsSLA 0
scalar FogSequentialForward.fog[48].server[0] droppedJobsTotal 0
scalar FogSequentialForward.fog[49].dispatcher localJobs 6
scalar FogSequentialForward.fog[49].dispatcher internalJobs 16297
scalar FogSequentialForward.fog[49].dispatcher externalJobs 16203916
scalar FogSequentialForward.fog[49].dispatcher remoteJobs 16203853
scalar FogSequentialForward.fog[49].dispatcher probeQueries 0
scalar FogSequentialForward.fog[49].dispatcher probeAnswers 0
scalar FogSequentialForward.fog[49].dispatcher droppedJobsSLA 16354
scalar FogSequentialForward.fog[49].dispatcher jobs_class_1 16220213
scalar FogSequentialForward.fog[49].dispatcher remoteJobs_class_1 16203853
scalar FogSequentialForward.fog[49].dispatcher localJobs_class_1 6
scalar FogSequentialForward.fog[49].dispatcher droppedJobsSLA_class_1 16354
scalar FogSequentialForward.fog[49].server[0] rho 0.00092494790442288
scalar FogSequentialForward.fog[49].server[0] congestionRatio 0
scalar FogSequentialForward.fog[49].server[0] totalJobs 6
scalar FogSequentialForward.fog[49].server[0] droppedJobsQueue 0
scalar FogSequentialForward.fog[49].server[0] droppedJobsTimout 0
scalar FogSequentialForward.fog[49].server[0] droppedJobsSLA 0
scalar FogSequentialForward.fog[49].server[0] droppedJobsTotal 0
scalar FogSequentialForward.fog[50].dispatcher localJobs 3
scalar FogSequentialForward.fog[50].dispatcher internalJobs 16215
scalar FogSequentialForward.fog[50].dispatcher externalJobs 16206274
scalar FogSequentialForward.fog[50].dispatcher remoteJobs 16206324
scalar FogSequentialForward.fog[50].dispatcher probeQueries 0
scalar FogSequentialForward.fog[50].dispatcher probeAnswers 0
scalar FogSequentialForward.fog[50].dispatcher droppedJobsSLA 16162
scalar FogSequentialForward.fog[50].dispatcher jobs_class_1 16222489
scalar FogSequentialForward.fog[50].dispatcher remoteJobs_class_1 16206324
scalar FogSequentialForward.fog[50].dispatcher localJobs_class_1 3
scalar FogSequentialForward.fog[50].dispatcher droppedJobsSLA_class_1 16162
scalar FogSequentialForward.fog[50].server[0] rho 0.00046495738206431
scalar FogSequentialForward.fog[50].server[0] congestionRatio 0
scalar FogSequentialForward.fog[50].server[0] totalJobs 3
scalar FogSequentialForward.fog[50].server[0] droppedJobsQueue 0
scalar FogSequentialForward.fog[50].server[0] droppedJobsTimout 0
scalar FogSequentialForward.fog[50].server[0] droppedJobsSLA 0
scalar FogSequentialForward.fog[50].server[0] droppedJobsTotal 0
scalar FogSequentialForward.fog[51].dispatcher localJobs 4
scalar FogSequentialForward.fog[51].dispatcher internalJobs 15923
scalar FogSequentialForward.fog[51].dispatcher externalJobs 16205992
scalar FogSequentialForward.fog[51].dispatcher remoteJobs 16205626
scalar FogSequentialForward.fog[51].dispatcher probeQueries 0
scalar FogSequentialForward.fog[51].dispatcher probeAnswers 0
scalar FogSequentialForward.fog[51].dispatcher droppedJobsSLA 16285
scalar FogSequentialForward.fog[51].dispatcher jobs_class_1 16221915
scalar FogSequentialForward.fog[51].dispatcher remoteJobs_class_1 16205626
scalar FogSequentialForward.fog[51].dispatcher localJobs_class_1 4
scalar FogSequentialForward.fog[51].dispatcher droppedJobsSLA_class_1 16285
scalar FogSequentialForward.fog[51].server[0] rho 0.00061793072381988
scalar FogSequentialForward.fog[51].server[0] congestionRatio 0
scalar FogSequentialForward.fog[51].server[0] totalJobs 4
scalar FogSequentialForward.fog[51].server[0] droppedJobsQueue 0
scalar FogSequentialForward.fog[51].server[0] droppedJobsTimout 0
scalar FogSequentialForward.fog[51].server[0] droppedJobsSLA 0
scalar FogSequentialForward.fog[51].server[0] droppedJobsTotal 0
scalar FogSequentialForward.fog[52].dispatcher localJobs 4
scalar FogSequentialForward.fog[52].dispatcher internalJobs 16125
scalar FogSequentialForward.fog[52].dispatcher externalJobs 16205719
scalar FogSequentialForward.fog[52].dispatcher remoteJobs 16205647
scalar FogSequentialForward.fog[52].dispatcher probeQueries 0
scalar FogSequentialForward.fog[52].dispatcher probeAnswers 0
scalar FogSequentialForward.fog[52].dispatcher droppedJobsSLA 16193
scalar FogSequentialForward.fog[52].dispatcher jobs_class_1 16221844
scalar FogSequentialForward.fog[52].dispatcher remoteJobs_class_1 16205647
scalar FogSequentialForward.fog[52].dispatcher localJobs_class_1 4
scalar FogSequentialForward.fog[52].dispatcher droppedJobsSLA_class_1 16193
scalar FogSequentialForward.fog[52].server[0] rho 0.00062132888706401
scalar FogSequentialForward.fog[52].server[0] congestionRatio 0
scalar FogSequentialForward.fog[52].server[0] totalJobs 4
scalar FogSequentialForward.fog[52].server[0] droppedJobsQueue 0
scalar FogSequentialForward.fog[52].server[0] droppedJobsTimout 0
scalar FogSequentialForward.fog[52].server[0] droppedJobsSLA 0
scalar FogSequentialForward.fog[52].server[0] droppedJobsTotal 0
scalar FogSequentialForward.fog[53].dispatcher localJobs 3
scalar FogSequentialForward.fog[53].dispatcher internalJobs 16372
scalar FogSequentialForward.fog[53].dispatcher externalJobs 16209083
scalar FogSequentialForward.fog[53].dispatcher remoteJobs 16209136
scalar FogSequentialForward.fog[53].dispatcher probeQueries 0
scalar FogSequentialForward.fog[53].dispatcher probeAnswers 0
scalar FogSequentialForward.fog[53].dispatcher droppedJobsSLA 16316
scalar FogSequentialForward.fog[53].dispatcher jobs_class_1 16225455
scalar FogSequentialForward.fog[53].dispatcher remoteJobs_class_1 16209136
scalar FogSequentialForward.fog[53].dispatcher localJobs_class_1 3
scalar FogSequentialForward.fog[53].dispatcher droppedJobsSLA_class_1 16316
scalar FogSequentialForward.fog[53].server[0] rho 0.0004652478673961
scalar FogSequentialForward.fog[53].server[0] congestionRatio 0
scalar FogSequentialForward.fog[53].server[0] totalJobs 3
scalar FogSequentialForward.fog[53].server[0] droppedJobsQueue 0
scalar FogSequentialForward.fog[53].server[0] droppedJobsTimout 0
scalar FogSequentialForward.fog[53].server[0] droppedJobsSLA 0
scalar FogSequentialForward.fog[53].server[0] droppedJobsTotal 0
scalar FogSequentialForward.fog[54].dispatcher localJobs 3
scalar FogSequentialForward.fog[54].dispatcher internalJobs 16083
scalar FogSequentialForward.fog[54].dispatcher externalJobs 16200600
scalar FogSequentialForward.fog[54].dispatcher remoteJobs 16200752
scalar FogSequentialForward.fog[54].dispatcher probeQueries 0
scalar FogSequentialForward.fog[54].dispatcher probeAnswers 0
scalar FogSequentialForward.fog[54].dispatcher droppedJobsSLA 15928
scalar FogSequentialForward.fog[54].dispatcher jobs_class_1 16216683
scalar FogSequentialForward.fog[54].dispatcher remoteJobs_class_1 16200752
scalar FogSequentialForward.fog[54].dispatcher localJobs_class_1 3
scalar FogSequentialForward.fog[54].dispatcher droppedJobsSLA_class_1 15928
scalar FogSequentialForward.fog[54].server[0] rho 0.00045882895938121
scalar FogSequentialForward.fog[54].server[0] congestionRatio 0
scalar FogSequentialForward.fog[54].server[0] totalJobs 3
scalar FogSequentialForward.fog[54].server[0] droppedJobsQueue 0
scalar FogSequentialForward.fog[54].server[0] droppedJobsTimout 0
scalar FogSequentialForward.fog[54].server[0] droppedJobsSLA 0
scalar FogSequentialForward.fog[54].server[0] droppedJobsTotal 0
scalar FogSequentialForward.fog[55].dispatcher localJobs 2
scalar FogSequentialForward.fog[55].dispatcher internalJobs 16197
scalar FogSequentialForward.fog[55].dispatcher externalJobs 16203012
scalar FogSequentialForward.fog[55].dispatcher remoteJobs 16202938
scalar FogSequentialForward.fog[55].dispatcher probeQueries 0
scalar FogSequentialForward.fog[55].dispatcher probeAnswers 0
scalar FogSequentialForward.fog[55].dispatcher droppedJobsSLA 16269
scalar FogSequentialForward.fog[55].dispatcher jobs_class_1 16219209
scalar FogSequentialForward.fog[55].dispatcher remoteJobs_class_1 16202938
scalar FogSequentialForward.fog[55].dispatcher localJobs_class_1 2
scalar FogSequentialForward.fog[55].dispatcher droppedJobsSLA_class_1 16269
scalar FogSequentialForward.fog[55].server[0] rho 0.00030796672217548
scalar FogSequentialForward.fog[55].server[0] congestionRatio 0
scalar FogSequentialForward.fog[55].server[0] totalJobs 2
scalar FogSequentialForward.fog[55].server[0] droppedJobsQueue 0
scalar FogSequentialForward.fog[55].server[0] droppedJobsTimout 0
scalar FogSequentialForward.fog[55].server[0] droppedJobsSLA 0
scalar FogSequentialForward.fog[55].server[0] droppedJobsTotal 0
scalar FogSequentialForward.fog[56].dispatcher localJobs 5
scalar FogSequentialForward.fog[56].dispatcher internalJobs 16201
scalar FogSequentialForward.fog[56].dispatcher externalJobs 16207660
scalar FogSequentialForward.fog[56].dispatcher remoteJobs 16207588
scalar FogSequentialForward.fog[56].dispatcher probeQueries 0
scalar FogSequentialForward.fog[56].dispatcher probeAnswers 0
scalar FogSequentialForward.fog[56].dispatcher droppedJobsSLA 16268
scalar FogSequentialForward.fog[56].dispatcher jobs_class_1 16223861
scalar FogSequentialForward.fog[56].dispatcher remoteJobs_class_1 16207588
scalar FogSequentialForward.fog[56].dispatcher localJobs_class_1 5
scalar FogSequentialForward.fog[56].dispatcher droppedJobsSLA_class_1 16268
scalar FogSequentialForward.fog[56].server[0] rho 0.00077738030813634
scalar FogSequentialForward.fog[56].server[0] congestionRatio 0
scalar FogSequentialForward.fog[56].server[0] totalJobs 5
scalar FogSequentialForward.fog[56].server[0] droppedJobsQueue 0
scalar FogSequentialForward.fog[56].server[0] droppedJobsTimout 0
scalar FogSequentialForward.fog[56].server[0] droppedJobsSLA 0
scalar FogSequentialForward.fog[56].server[0] droppedJobsTotal 0
scalar FogSequentialForward.fog[57].dispatcher localJobs 3
scalar FogSequentialForward.fog[57].dispatcher internalJobs 15978
scalar FogSequentialForward.fog[57].dispatcher externalJobs 16202653
scalar FogSequentialForward.fog[57].dispatcher remoteJobs 16202561
scalar FogSequentialForward.fog[57].dispatcher probeQueries 0
scalar FogSequentialForward.fog[57].dispatcher probeAnswers 0
scalar FogSequentialForward.fog[57].dispatcher droppedJobsSLA 16067
scalar FogSequentialForward.fog[57].dispatcher jobs_class_1 16218631
scalar FogSequentialForward.fog[57].dispatcher remoteJobs_class_1 16202561
scalar FogSequentialForward.fog[57].dispatcher localJobs_class_1 3
scalar FogSequentialForward.fog[57].dispatcher droppedJobsSLA_class_1 16067
scalar FogSequentialForward.fog[57].server[0] rho 0.00046297308290377
scalar FogSequentialForward.fog[57].server[0] congestionRatio 0
scalar FogSequentialForward.fog[57].server[0] totalJobs 3
scalar FogSequentialForward.fog[57].server[0] droppedJobsQueue 0
scalar FogSequentialForward.fog[57].server[0] droppedJobsTimout 0
scalar FogSequentialForward.fog[57].server[0] droppedJobsSLA 0
scalar FogSequentialForward.fog[57].server[0] droppedJobsTotal 0
scalar FogSequentialForward.fog[58].dispatcher localJobs 1
scalar FogSequentialForward.fog[58].dispatcher internalJobs 16201
scalar FogSequentialForward.fog[58].dispatcher externalJobs 16205611
scalar FogSequentialForward.fog[58].dispatcher remoteJobs 16205505
scalar FogSequentialForward.fog[58].dispatcher probeQueries 0
scalar FogSequentialForward.fog[58].dispatcher probeAnswers 0
scalar FogSequentialForward.fog[58].dispatcher droppedJobsSLA 16306
scalar FogSequentialForward.fog[58].dispatcher jobs_class_1 16221812
scalar FogSequentialForward.fog[58].dispatcher remoteJobs_class_1 16205505
scalar FogSequentialForward.fog[58].dispatcher localJobs_class_1 1
scalar FogSequentialForward.fog[58].dispatcher droppedJobsSLA_class_1 16306
scalar FogSequentialForward.fog[58].server[0] rho 0.00015230677672662
scalar FogSequentialForward.fog[58].server[0] congestionRatio 0
scalar FogSequentialForward.fog[58].server[0] totalJobs 1
scalar FogSequentialForward.fog[58].server[0] droppedJobsQueue 0
scalar FogSequentialForward.fog[58].server[0] droppedJobsTimout 0
scalar FogSequentialForward.fog[58].server[0] droppedJobsSLA 0
scalar FogSequentialForward.fog[58].server[0] droppedJobsTotal 0
scalar FogSequentialForward.fog[59].dispatcher localJobs 5
scalar FogSequentialForward.fog[59].dispatcher internalJobs 16209
scalar FogSequentialForward.fog[59].dispatcher externalJobs 16206893
scalar FogSequentialForward.fog[59].dispatcher remoteJobs 16206938
scalar FogSequentialForward.fog[59].dispatcher probeQueries 0
scalar FogSequentialForward.fog[59].dispatcher probeAnswers 0
scalar FogSequentialForward.fog[59].dispatcher droppedJobsSLA 16159
scalar FogSequentialForward.fog[59].dispatcher jobs_class_1 16223102
scalar FogSequentialForward.fog[59].dispatcher remoteJobs_class_1 16206938
scalar FogSequentialForward.fog[59].dispatcher localJobs_class_1 5
scalar FogSequentialForward.fog[59].dispatcher droppedJobsSLA_class_1 16159
scalar FogSequentialForward.fog[59].server[0] rho 0.00076895393431187
scalar FogSequentialForward.fog[59].server[0] congestionRatio 0
scalar FogSequentialForward.fog[59].server[0] totalJobs 5
scalar FogSequentialForward.fog[59].server[0] droppedJobsQueue 0
scalar FogSequentialForward.fog[59].server[0] droppedJobsTimout 0
scalar FogSequentialForward.fog[59].server[0] droppedJobsSLA 0
scalar FogSequentialForward.fog[59].server[0] droppedJobsTotal 0
scalar FogSequentialForward.fog[60].dispatcher localJobs 2
scalar FogSequentialForward.fog[60].dispatcher internalJobs 16033
scalar FogSequentialForward.fog[60].dispatcher externalJobs 16206455
scalar FogSequentialForward.fog[60].dispatcher remoteJobs 16206276
scalar FogSequentialForward.fog[60].dispatcher probeQueries 0
scalar FogSequentialForward.fog[60].dispatcher probeAnswers 0
scalar FogSequentialForward.fog[60].dispatcher droppedJobsSLA 16210
scalar FogSequentialForward.fog[60].dispatcher jobs_class_1 16222488
scalar FogSequentialForward.fog[60].dispatcher remoteJobs_class_1 16206276
scalar FogSequentialForward.fog[60].dispatcher localJobs_class_1 2
scalar FogSequentialForward.fog[60].dispatcher droppedJobsSLA_class_1 16210
scalar FogSequentialForward.fog[60].server[0] rho 0.00031380334985442
scalar FogSequentialForward.fog[60].server[0] congestionRatio 0
scalar FogSequentialForward.fog[60].server[0] totalJobs 2
scalar FogSequentialForward.fog[60].server[0] droppedJobsQueue 0
scalar FogSequentialForward.fog[60].server[0] droppedJobsTimout 0
scalar FogSequentialForward.fog[60].server[0] droppedJobsSLA 0
scalar FogSequentialForward.fog[60].server[0] droppedJobsTotal 0
scalar FogSequentialForward.fog[61].dispatcher localJobs 6
scalar FogSequentialForward.fog[61].dispatcher internalJobs 16109
scalar FogSequentialForward.fog[61].dispatcher externalJobs 16202890
scalar FogSequentialForward.fog[61].dispatcher remoteJobs 16203164
scalar FogSequentialForward.fog[61].dispatcher probeQueries 0
scalar FogSequentialForward.fog[61].dispatcher probeAnswers 0
scalar FogSequentialForward.fog[61].dispatcher droppedJobsSLA 15829
scalar FogSequentialForward.fog[61].dispatcher jobs_class_1 16218999
scalar FogSequentialForward.fog[61].dispatcher remoteJobs_class_1 16203164
scalar FogSequentialForward.fog[61].dispatcher localJobs_class_1 6
scalar FogSequentialForward.fog[61].dispatcher droppedJobsSLA_class_1 15829
scalar FogSequentialForward.fog[61].server[0] rho 0.00093301723245531
scalar FogSequentialForward.fog[61].server[0] congestionRatio 0
scalar FogSequentialForward.fog[61].server[0] totalJobs 6
scalar FogSequentialForward.fog[61].server[0] droppedJobsQueue 0
scalar FogSequentialForward.fog[61].server[0] droppedJobsTimout 0
scalar FogSequentialForward.fog[61].server[0] droppedJobsSLA 0
scalar FogSequentialForward.fog[61].server[0] droppedJobsTotal 0
scalar FogSequentialForward.fog[62].dispatcher localJobs 4
scalar FogSequentialForward.fog[62].dispatcher internalJobs 16285
scalar FogSequentialForward.fog[62].dispatcher externalJobs 16206144
scalar FogSequentialForward.fog[62].dispatcher remoteJobs 16206086
scalar FogSequentialForward.fog[62].dispatcher probeQueries 0
scalar FogSequentialForward.fog[62].dispatcher probeAnswers 0
scalar FogSequentialForward.fog[62].dispatcher droppedJobsSLA 16339
scalar FogSequentialForward.fog[62].dispatcher jobs_class_1 16222429
scalar FogSequentialForward.fog[62].dispatcher remoteJobs_class_1 16206086
scalar FogSequentialForward.fog[62].dispatcher localJobs_class_1 4
scalar FogSequentialForward.fog[62].dispatcher droppedJobsSLA_class_1 16339
scalar FogSequentialForward.fog[62].server[0] rho 0.00062425638316199
scalar FogSequentialForward.fog[62].server[0] congestionRatio 0
scalar FogSequentialForward.fog[62].server[0] totalJobs 4
scalar FogSequentialForward.fog[62].server[0] droppedJobsQueue 0
scalar FogSequentialForward.fog[62].server[0] droppedJobsTimout 0
scalar FogSequentialForward.fog[62].server[0] droppedJobsSLA 0
scalar FogSequentialForward.fog[62].server[0] droppedJobsTotal 0
scalar FogSequentialForward.fog[63].dispatcher localJobs 2
scalar FogSequentialForward.fog[63].dispatcher internalJobs 16071
scalar FogSequentialForward.fog[63].dispatcher externalJobs 16205861
scalar FogSequentialForward.fog[63].dispatcher remoteJobs 16205806
scalar FogSequentialForward.fog[63].dispatcher probeQueries 0
scalar FogSequentialForward.fog[63].dispatcher probeAnswers 0
scalar FogSequentialForward.fog[63].dispatcher droppedJobsSLA 16124
scalar FogSequentialForward.fog[63].dispatcher jobs_class_1 16221932
scalar FogSequentialForward.fog[63].dispatcher remoteJobs_class_1 16205806
scalar FogSequentialForward.fog[63].dispatcher localJobs_class_1 2
scalar FogSequentialForward.fog[63].dispatcher droppedJobsSLA_class_1 16124
scalar FogSequentialForward.fog[63].server[0] rho 0.00031106028473005
scalar FogSequentialForward.fog[63].server[0] congestionRatio 0
scalar FogSequentialForward.fog[63].server[0] totalJobs 2
scalar FogSequentialForward.fog[63].server[0] droppedJobsQueue 0
scalar FogSequentialForward.fog[63].server[0] droppedJobsTimout 0
scalar FogSequentialForward.fog[63].server[0] droppedJobsSLA 0
scalar FogSequentialForward.fog[63].server[0] droppedJobsTotal 0
scalar FogSequentialForward.fog[64].dispatcher localJobs 5
scalar FogSequentialForward.fog[64].dispatcher internalJobs 16136
scalar FogSequentialForward.fog[64].dispatcher externalJobs 16216451
scalar FogSequentialForward.fog[64].dispatcher remoteJobs 16216463
scalar FogSequentialForward.fog[64].dispatcher probeQueries 0
scalar FogSequentialForward.fog[64].dispatcher probeAnswers 0
scalar FogSequentialForward.fog[64].dispatcher droppedJobsSLA 16119
scalar FogSequentialForward.fog[64].dispatcher jobs_class_1 16232587
scalar FogSequentialForward.fog[64].dispatcher remoteJobs_class_1 16216463
scalar FogSequentialForward.fog[64].dispatcher localJobs_class_1 5
scalar FogSequentialForward.fog[64].dispatcher droppedJobsSLA_class_1 16119
scalar FogSequentialForward.fog[64].server[0] rho 0.00078070198651403
scalar FogSequentialForward.fog[64].server[0] congestionRatio 0
scalar FogSequentialForward.fog[64].server[0] totalJobs 5
scalar FogSequentialForward.fog[64].server[0] droppedJobsQueue 0
scalar FogSequentialForward.fog[64].server[0] droppedJobsTimout 0
scalar FogSequentialForward.fog[64].server[0] droppedJobsSLA 0
scalar FogSequentialForward.fog[64].server[0] droppedJobsTotal 0
scalar FogSequentialForward.fog[65].dispatcher localJobs 3
scalar FogSequentialForward.fog[65].dispatcher internalJobs 16192
scalar FogSequentialForward.fog[65].dispatcher externalJobs 16209594
scalar FogSequentialForward.fog[65].dispatcher remoteJobs 16209750
scalar FogSequentialForward.fog[65].dispatcher probeQueries 0
scalar FogSequentialForward.fog[65].dispatcher probeAnswers 0
scalar FogSequentialForward.fog[65].dispatcher droppedJobsSLA 16033
scalar FogSequentialForward.fog[65].dispatcher jobs_class_1 16225786
scalar FogSequentialForward.fog[65].dispatcher remoteJobs_class_1 16209750
scalar FogSequentialForward.fog[65].dispatcher localJobs_class_1 3
scalar FogSequentialForward.fog[65].dispatcher droppedJobsSLA_class_1 16033
scalar FogSequentialForward.fog[65].server[0] rho 0.00046581012429669
scalar FogSequentialForward.fog[65].server[0] congestionRatio 0
scalar FogSequentialForward.fog[65].server[0] totalJobs 3
scalar FogSequentialForward.fog[65].server[0] droppedJobsQueue 0
scalar FogSequentialForward.fog[65].server[0] droppedJobsTimout 0
scalar FogSequentialForward.fog[65].server[0] droppedJobsSLA 0
scalar FogSequentialForward.fog[65].server[0] droppedJobsTotal 0
scalar FogSequentialForward.fog[66].dispatcher localJobs 5
scalar FogSequentialForward.fog[66].dispatcher internalJobs 16058
scalar FogSequentialForward.fog[66].dispatcher externalJobs 16206519
scalar FogSequentialForward.fog[66].dispatcher remoteJobs 16206435
scalar FogSequentialForward.fog[66].dispatcher probeQueries 0
scalar FogSequentialForward.fog[66].dispatcher probeAnswers 0
scalar FogSequentialForward.fog[66].dispatcher droppedJobsSLA 16137
[...]
scalar FogSequentialForward.fog[84].dispatcher remoteJobs 16208770
scalar FogSequentialForward.fog[84].dispatcher probeQueries 0
scalar FogSequentialForward.fog[84].dispatcher probeAnswers 0
scalar FogSequentialForward.fog[84].dispatcher droppedJobsSLA 16308
scalar FogSequentialForward.fog[84].dispatcher jobs_class_1 16225083
scalar FogSequentialForward.fog[84].dispatcher remoteJobs_class_1 16208770
scalar FogSequentialForward.fog[84].dispatcher localJobs_class_1 5
scalar FogSequentialForward.fog[84].dispatcher droppedJobsSLA_class_1 16308
scalar FogSequentialForward.fog[84].server[0] rho 0.00076697976328433
scalar FogSequentialForward.fog[84].server[0] congestionRatio 0
scalar FogSequentialForward.fog[84].server[0] totalJobs 5
scalar FogSequentialForward.fog[84].server[0] droppedJobsQueue 0
scalar FogSequentialForward.fog[84].server[0] droppedJobsTimout 0
scalar FogSequentialForward.fog[84].server[0] droppedJobsSLA 0
scalar FogSequentialForward.fog[84].server[0] droppedJobsTotal 0
scalar FogSequentialForward.fog[85].dispatcher localJobs 4
scalar FogSequentialForward.fog[85].dispatcher internalJobs 16182
scalar FogSequentialForward.fog[85].dispatcher externalJobs 16208017
scalar FogSequentialForward.fog[85].dispatcher remoteJobs 16207823
scalar FogSequentialForward.fog[85].dispatcher probeQueries 0
scalar FogSequentialForward.fog[85].dispatcher probeAnswers 0
scalar FogSequentialForward.fog[85].dispatcher droppedJobsSLA 16372
scalar FogSequentialForward.fog[85].dispatcher jobs_class_1 16224199
scalar FogSequentialForward.fog[85].dispatcher remoteJobs_class_1 16207823
scalar FogSequentialForward.fog[85].dispatcher localJobs_class_1 4
scalar FogSequentialForward.fog[85].dispatcher droppedJobsSLA_class_1 16372
scalar FogSequentialForward.fog[85].server[0] rho 0.00062493421137333
scalar FogSequentialForward.fog[85].server[0] congestionRatio 0
scalar FogSequentialForward.fog[85].server[0] totalJobs 4
scalar FogSequentialForward.fog[85].server[0] droppedJobsQueue 0
scalar FogSequentialForward.fog[85].server[0] droppedJobsTimout 0
scalar FogSequentialForward.fog[85].server[0] droppedJobsSLA 0
scalar FogSequentialForward.fog[85].server[0] droppedJobsTotal 0
scalar FogSequentialForward.fog[86].dispatcher localJobs 3
scalar FogSequentialForward.fog[86].dispatcher internalJobs 16214
scalar FogSequentialForward.fog[86].dispatcher externalJobs 16206083
scalar FogSequentialForward.fog[86].dispatcher remoteJobs 16206218
scalar FogSequentialForward.fog[86].dispatcher probeQueries 0
scalar FogSequentialForward.fog[86].dispatcher probeAnswers 0
scalar FogSequentialForward.fog[86].dispatcher droppedJobsSLA 16076
scalar FogSequentialForward.fog[86].dispatcher jobs_class_1 16222297
scalar FogSequentialForward.fog[86].dispatcher remoteJobs_class_1 16206218
scalar FogSequentialForward.fog[86].dispatcher localJobs_class_1 3
scalar FogSequentialForward.fog[86].dispatcher droppedJobsSLA_class_1 16076
scalar FogSequentialForward.fog[86].server[0] rho 0.00045980521827005
scalar FogSequentialForward.fog[86].server[0] congestionRatio 0
scalar FogSequentialForward.fog[86].server[0] totalJobs 3
scalar FogSequentialForward.fog[86].server[0] droppedJobsQueue 0
scalar FogSequentialForward.fog[86].server[0] droppedJobsTimout 0
scalar FogSequentialForward.fog[86].server[0] droppedJobsSLA 0
scalar FogSequentialForward.fog[86].server[0] droppedJobsTotal 0
scalar FogSequentialForward.fog[87].dispatcher localJobs 4
scalar FogSequentialForward.fog[87].dispatcher internalJobs 16272
scalar FogSequentialForward.fog[87].dispatcher externalJobs 16205389
scalar FogSequentialForward.fog[87].dispatcher remoteJobs 16205594
scalar FogSequentialForward.fog[87].dispatcher probeQueries 0
scalar FogSequentialForward.fog[87].dispatcher probeAnswers 0
scalar FogSequentialForward.fog[87].dispatcher droppedJobsSLA 16063
scalar FogSequentialForward.fog[87].dispatcher jobs_class_1 16221661
scalar FogSequentialForward.fog[87].dispatcher remoteJobs_class_1 16205594
scalar FogSequentialForward.fog[87].dispatcher localJobs_class_1 4
scalar FogSequentialForward.fog[87].dispatcher droppedJobsSLA_class_1 16063
scalar FogSequentialForward.fog[87].server[0] rho 0.00062479759799317
scalar FogSequentialForward.fog[87].server[0] congestionRatio 0
scalar FogSequentialForward.fog[87].server[0] totalJobs 4
scalar FogSequentialForward.fog[87].server[0] droppedJobsQueue 0
scalar FogSequentialForward.fog[87].server[0] droppedJobsTimout 0
scalar FogSequentialForward.fog[87].server[0] droppedJobsSLA 0
scalar FogSequentialForward.fog[87].server[0] droppedJobsTotal 0
scalar FogSequentialForward.fog[88].dispatcher localJobs 2
scalar FogSequentialForward.fog[88].dispatcher internalJobs 16324
scalar FogSequentialForward.fog[88].dispatcher externalJobs 16204391
scalar FogSequentialForward.fog[88].dispatcher remoteJobs 16204554
scalar FogSequentialForward.fog[88].dispatcher probeQueries 0
scalar FogSequentialForward.fog[88].dispatcher probeAnswers 0
scalar FogSequentialForward.fog[88].dispatcher droppedJobsSLA 16159
scalar FogSequentialForward.fog[88].dispatcher jobs_class_1 16220715
scalar FogSequentialForward.fog[88].dispatcher remoteJobs_class_1 16204554
scalar FogSequentialForward.fog[88].dispatcher localJobs_class_1 2
scalar FogSequentialForward.fog[88].dispatcher droppedJobsSLA_class_1 16159
scalar FogSequentialForward.fog[88].server[0] rho 0.00030794637859799
scalar FogSequentialForward.fog[88].server[0] congestionRatio 0
scalar FogSequentialForward.fog[88].server[0] totalJobs 2
scalar FogSequentialForward.fog[88].server[0] droppedJobsQueue 0
scalar FogSequentialForward.fog[88].server[0] droppedJobsTimout 0
scalar FogSequentialForward.fog[88].server[0] droppedJobsSLA 0
scalar FogSequentialForward.fog[88].server[0] droppedJobsTotal 0
scalar FogSequentialForward.fog[89].dispatcher localJobs 1
scalar FogSequentialForward.fog[89].dispatcher internalJobs 16318
scalar FogSequentialForward.fog[89].dispatcher externalJobs 16208212
scalar FogSequentialForward.fog[89].dispatcher remoteJobs 16208522
scalar FogSequentialForward.fog[89].dispatcher probeQueries 0
scalar FogSequentialForward.fog[89].dispatcher probeAnswers 0
scalar FogSequentialForward.fog[89].dispatcher droppedJobsSLA 16007
scalar FogSequentialForward.fog[89].dispatcher jobs_class_1 16224530
scalar FogSequentialForward.fog[89].dispatcher remoteJobs_class_1 16208522
scalar FogSequentialForward.fog[89].dispatcher localJobs_class_1 1
scalar FogSequentialForward.fog[89].dispatcher droppedJobsSLA_class_1 16007
scalar FogSequentialForward.fog[89].server[0] rho 0.00016035795852076
scalar FogSequentialForward.fog[89].server[0] congestionRatio 0
scalar FogSequentialForward.fog[89].server[0] totalJobs 1
scalar FogSequentialForward.fog[89].server[0] droppedJobsQueue 0
scalar FogSequentialForward.fog[89].server[0] droppedJobsTimout 0
scalar FogSequentialForward.fog[89].server[0] droppedJobsSLA 0
scalar FogSequentialForward.fog[89].server[0] droppedJobsTotal 0
scalar FogSequentialForward.fog[90].dispatcher localJobs 3
scalar FogSequentialForward.fog[90].dispatcher internalJobs 16035
scalar FogSequentialForward.fog[90].dispatcher externalJobs 16205748
scalar FogSequentialForward.fog[90].dispatcher remoteJobs 16205697
scalar FogSequentialForward.fog[90].dispatcher probeQueries 0
scalar FogSequentialForward.fog[90].dispatcher probeAnswers 0
scalar FogSequentialForward.fog[90].dispatcher droppedJobsSLA 16083
scalar FogSequentialForward.fog[90].dispatcher jobs_class_1 16221783
scalar FogSequentialForward.fog[90].dispatcher remoteJobs_class_1 16205697
scalar FogSequentialForward.fog[90].dispatcher localJobs_class_1 3
scalar FogSequentialForward.fog[90].dispatcher droppedJobsSLA_class_1 16083
scalar FogSequentialForward.fog[90].server[0] rho 0.00046471095993184
scalar FogSequentialForward.fog[90].server[0] congestionRatio 0
scalar FogSequentialForward.fog[90].server[0] totalJobs 3
scalar FogSequentialForward.fog[90].server[0] droppedJobsQueue 0
scalar FogSequentialForward.fog[90].server[0] droppedJobsTimout 0
scalar FogSequentialForward.fog[90].server[0] droppedJobsSLA 0
scalar FogSequentialForward.fog[90].server[0] droppedJobsTotal 0
scalar FogSequentialForward.fog[91].dispatcher localJobs 4
scalar FogSequentialForward.fog[91].dispatcher internalJobs 16262
scalar FogSequentialForward.fog[91].dispatcher externalJobs 16203567
scalar FogSequentialForward.fog[91].dispatcher remoteJobs 16203565
scalar FogSequentialForward.fog[91].dispatcher probeQueries 0
scalar FogSequentialForward.fog[91].dispatcher probeAnswers 0
scalar FogSequentialForward.fog[91].dispatcher droppedJobsSLA 16260
scalar FogSequentialForward.fog[91].dispatcher jobs_class_1 16219829
scalar FogSequentialForward.fog[91].dispatcher remoteJobs_class_1 16203565
scalar FogSequentialForward.fog[91].dispatcher localJobs_class_1 4
scalar FogSequentialForward.fog[91].dispatcher droppedJobsSLA_class_1 16260
scalar FogSequentialForward.fog[91].server[0] rho 0.00062221830012277
scalar FogSequentialForward.fog[91].server[0] congestionRatio 0
scalar FogSequentialForward.fog[91].server[0] totalJobs 4
scalar FogSequentialForward.fog[91].server[0] droppedJobsQueue 0
scalar FogSequentialForward.fog[91].server[0] droppedJobsTimout 0
scalar FogSequentialForward.fog[91].server[0] droppedJobsSLA 0
scalar FogSequentialForward.fog[91].server[0] droppedJobsTotal 0
scalar FogSequentialForward.fog[92].dispatcher localJobs 6
scalar FogSequentialForward.fog[92].dispatcher internalJobs 16379
scalar FogSequentialForward.fog[92].dispatcher externalJobs 16210478
scalar FogSequentialForward.fog[92].dispatcher remoteJobs 16210666
scalar FogSequentialForward.fog[92].dispatcher probeQueries 0
scalar FogSequentialForward.fog[92].dispatcher probeAnswers 0
scalar FogSequentialForward.fog[92].dispatcher droppedJobsSLA 16185
scalar FogSequentialForward.fog[92].dispatcher jobs_class_1 16226857
scalar FogSequentialForward.fog[92].dispatcher remoteJobs_class_1 16210666
scalar FogSequentialForward.fog[92].dispatcher localJobs_class_1 6
scalar FogSequentialForward.fog[92].dispatcher droppedJobsSLA_class_1 16185
scalar FogSequentialForward.fog[92].server[0] rho 0.00093462155200541
scalar FogSequentialForward.fog[92].server[0] congestionRatio 0
scalar FogSequentialForward.fog[92].server[0] totalJobs 6
scalar FogSequentialForward.fog[92].server[0] droppedJobsQueue 0
scalar FogSequentialForward.fog[92].server[0] droppedJobsTimout 0
scalar FogSequentialForward.fog[92].server[0] droppedJobsSLA 0
scalar FogSequentialForward.fog[92].server[0] droppedJobsTotal 0
scalar FogSequentialForward.fog[93].dispatcher localJobs 4
scalar FogSequentialForward.fog[93].dispatcher internalJobs 16142
scalar FogSequentialForward.fog[93].dispatcher externalJobs 16211589
scalar FogSequentialForward.fog[93].dispatcher remoteJobs 16211612
scalar FogSequentialForward.fog[93].dispatcher probeQueries 0
scalar FogSequentialForward.fog[93].dispatcher probeAnswers 0
scalar FogSequentialForward.fog[93].dispatcher droppedJobsSLA 16115
scalar FogSequentialForward.fog[93].dispatcher jobs_class_1 16227731
scalar FogSequentialForward.fog[93].dispatcher remoteJobs_class_1 16211612
scalar FogSequentialForward.fog[93].dispatcher localJobs_class_1 4
scalar FogSequentialForward.fog[93].dispatcher droppedJobsSLA_class_1 16115
scalar FogSequentialForward.fog[93].server[0] rho 0.00062249065376818
scalar FogSequentialForward.fog[93].server[0] congestionRatio 0
scalar FogSequentialForward.fog[93].server[0] totalJobs 4
scalar FogSequentialForward.fog[93].server[0] droppedJobsQueue 0
scalar FogSequentialForward.fog[93].server[0] droppedJobsTimout 0
scalar FogSequentialForward.fog[93].server[0] droppedJobsSLA 0
scalar FogSequentialForward.fog[93].server[0] droppedJobsTotal 0
scalar FogSequentialForward.fog[94].dispatcher localJobs 4
scalar FogSequentialForward.fog[94].dispatcher internalJobs 16036
scalar FogSequentialForward.fog[94].dispatcher externalJobs 16198072
scalar FogSequentialForward.fog[94].dispatcher remoteJobs 16197984
scalar FogSequentialForward.fog[94].dispatcher probeQueries 0
scalar FogSequentialForward.fog[94].dispatcher probeAnswers 0
scalar FogSequentialForward.fog[94].dispatcher droppedJobsSLA 16120
scalar FogSequentialForward.fog[94].dispatcher jobs_class_1 16214108
scalar FogSequentialForward.fog[94].dispatcher remoteJobs_class_1 16197984
scalar FogSequentialForward.fog[94].dispatcher localJobs_class_1 4
scalar FogSequentialForward.fog[94].dispatcher droppedJobsSLA_class_1 16120
scalar FogSequentialForward.fog[94].server[0] rho 0.0006170267588459
scalar FogSequentialForward.fog[94].server[0] congestionRatio 0
scalar FogSequentialForward.fog[94].server[0] totalJobs 4
scalar FogSequentialForward.fog[94].server[0] droppedJobsQueue 0
scalar FogSequentialForward.fog[94].server[0] droppedJobsTimout 0
scalar FogSequentialForward.fog[94].server[0] droppedJobsSLA 0
scalar FogSequentialForward.fog[94].server[0] droppedJobsTotal 0
scalar FogSequentialForward.fog[95].dispatcher localJobs 4
scalar FogSequentialForward.fog[95].dispatcher internalJobs 16353
scalar FogSequentialForward.fog[95].dispatcher externalJobs 16209259
scalar FogSequentialForward.fog[95].dispatcher remoteJobs 16209324
scalar FogSequentialForward.fog[95].dispatcher probeQueries 0
scalar FogSequentialForward.fog[95].dispatcher probeAnswers 0
scalar FogSequentialForward.fog[95].dispatcher droppedJobsSLA 16284
scalar FogSequentialForward.fog[95].dispatcher jobs_class_1 16225612
scalar FogSequentialForward.fog[95].dispatcher remoteJobs_class_1 16209324
scalar FogSequentialForward.fog[95].dispatcher localJobs_class_1 4
scalar FogSequentialForward.fog[95].dispatcher droppedJobsSLA_class_1 16284
scalar FogSequentialForward.fog[95].server[0] rho 0.00061622989596799
scalar FogSequentialForward.fog[95].server[0] congestionRatio 0
scalar FogSequentialForward.fog[95].server[0] totalJobs 4
scalar FogSequentialForward.fog[95].server[0] droppedJobsQueue 0
scalar FogSequentialForward.fog[95].server[0] droppedJobsTimout 0
scalar FogSequentialForward.fog[95].server[0] droppedJobsSLA 0
scalar FogSequentialForward.fog[95].server[0] droppedJobsTotal 0
scalar FogSequentialForward.fog[96].dispatcher localJobs 2
scalar FogSequentialForward.fog[96].dispatcher internalJobs 16098
scalar FogSequentialForward.fog[96].dispatcher externalJobs 16199763
scalar FogSequentialForward.fog[96].dispatcher remoteJobs 16199572
scalar FogSequentialForward.fog[96].dispatcher probeQueries 0
scalar FogSequentialForward.fog[96].dispatcher probeAnswers 0
scalar FogSequentialForward.fog[96].dispatcher droppedJobsSLA 16287
scalar FogSequentialForward.fog[96].dispatcher jobs_class_1 16215861
scalar FogSequentialForward.fog[96].dispatcher remoteJobs_class_1 16199572
scalar FogSequentialForward.fog[96].dispatcher localJobs_class_1 2
scalar FogSequentialForward.fog[96].dispatcher droppedJobsSLA_class_1 16287
scalar FogSequentialForward.fog[96].server[0] rho 0.00030121207237244
scalar FogSequentialForward.fog[96].server[0] congestionRatio 0
scalar FogSequentialForward.fog[96].server[0] totalJobs 2
scalar FogSequentialForward.fog[96].server[0] droppedJobsQueue 0
scalar FogSequentialForward.fog[96].server[0] droppedJobsTimout 0
scalar FogSequentialForward.fog[96].server[0] droppedJobsSLA 0
scalar FogSequentialForward.fog[96].server[0] droppedJobsTotal 0
scalar FogSequentialForward.fog[97].dispatcher localJobs 1
scalar FogSequentialForward.fog[97].dispatcher internalJobs 16365
scalar FogSequentialForward.fog[97].dispatcher externalJobs 16205886
scalar FogSequentialForward.fog[97].dispatcher remoteJobs 16206228
scalar FogSequentialForward.fog[97].dispatcher probeQueries 0
scalar FogSequentialForward.fog[97].dispatcher probeAnswers 0
scalar FogSequentialForward.fog[97].dispatcher droppedJobsSLA 16022
scalar FogSequentialForward.fog[97].dispatcher jobs_class_1 16222251
scalar FogSequentialForward.fog[97].dispatcher remoteJobs_class_1 16206228
scalar FogSequentialForward.fog[97].dispatcher localJobs_class_1 1
scalar FogSequentialForward.fog[97].dispatcher droppedJobsSLA_class_1 16022
scalar FogSequentialForward.fog[97].server[0] rho 0.00015401771815959
scalar FogSequentialForward.fog[97].server[0] congestionRatio 0
scalar FogSequentialForward.fog[97].server[0] totalJobs 1
scalar FogSequentialForward.fog[97].server[0] droppedJobsQueue 0
scalar FogSequentialForward.fog[97].server[0] droppedJobsTimout 0
scalar FogSequentialForward.fog[97].server[0] droppedJobsSLA 0
scalar FogSequentialForward.fog[97].server[0] droppedJobsTotal 0
scalar FogSequentialForward.fog[98].dispatcher localJobs 3
scalar FogSequentialForward.fog[98].dispatcher internalJobs 16411
scalar FogSequentialForward.fog[98].dispatcher externalJobs 16205559
scalar FogSequentialForward.fog[98].dispatcher remoteJobs 16205676
scalar FogSequentialForward.fog[98].dispatcher probeQueries 0
scalar FogSequentialForward.fog[98].dispatcher probeAnswers 0
scalar FogSequentialForward.fog[98].dispatcher droppedJobsSLA 16291
scalar FogSequentialForward.fog[98].dispatcher jobs_class_1 16221970
scalar FogSequentialForward.fog[98].dispatcher remoteJobs_class_1 16205676
scalar FogSequentialForward.fog[98].dispatcher localJobs_class_1 3
scalar FogSequentialForward.fog[98].dispatcher droppedJobsSLA_class_1 16291
scalar FogSequentialForward.fog[98].server[0] rho 0.00046629493590444
scalar FogSequentialForward.fog[98].server[0] congestionRatio 0
scalar FogSequentialForward.fog[98].server[0] totalJobs 3
scalar FogSequentialForward.fog[98].server[0] droppedJobsQueue 0
scalar FogSequentialForward.fog[98].server[0] droppedJobsTimout 0
scalar FogSequentialForward.fog[98].server[0] droppedJobsSLA 0
scalar FogSequentialForward.fog[98].server[0] droppedJobsTotal 0
scalar FogSequentialForward.fog[99].dispatcher localJobs 3
scalar FogSequentialForward.fog[99].dispatcher internalJobs 16252
scalar FogSequentialForward.fog[99].dispatcher externalJobs 16206514
scalar FogSequentialForward.fog[99].dispatcher remoteJobs 16206497
scalar FogSequentialForward.fog[99].dispatcher probeQueries 0
scalar FogSequentialForward.fog[99].dispatcher probeAnswers 0
scalar FogSequentialForward.fog[99].dispatcher droppedJobsSLA 16266
scalar FogSequentialForward.fog[99].dispatcher jobs_class_1 16222766
scalar FogSequentialForward.fog[99].dispatcher remoteJobs_class_1 16206497
scalar FogSequentialForward.fog[99].dispatcher localJobs_class_1 3
scalar FogSequentialForward.fog[99].dispatcher droppedJobsSLA_class_1 16266
scalar FogSequentialForward.fog[99].server[0] rho 0.00046878281864338
scalar FogSequentialForward.fog[99].server[0] congestionRatio 0
scalar FogSequentialForward.fog[99].server[0] totalJobs 3
scalar FogSequentialForward.fog[99].server[0] droppedJobsQueue 0
scalar FogSequentialForward.fog[99].server[0] droppedJobsTimout 0
scalar FogSequentialForward.fog[99].server[0] droppedJobsSLA 0
scalar FogSequentialForward.fog[99].server[0] droppedJobsTotal 0
scalar FogSequentialForward.sink avg_responseTime_1 3.8664113235996
scalar FogSequentialForward.sink p90_responseTime_1 1.599651412518
scalar FogSequentialForward.sink med_responseTime_1 1.599651412518
scalar FogSequentialForward.sink avg_delayTime_1 0
scalar FogSequentialForward.sink p90_delayTime_1 0
scalar FogSequentialForward.sink med_delayTime_1 0
scalar FogSequentialForward.sink avg_queuingTime_1 2.1968788301174
scalar FogSequentialForward.sink p90_queuingTime_1 0
scalar FogSequentialForward.sink med_queuingTime_1 0
scalar FogSequentialForward.sink avg_serviceTime_1 1.6693978160628
scalar FogSequentialForward.sink p90_serviceTime_1 1.569338760226
scalar FogSequentialForward.sink med_serviceTime_1 1.569338760226
scalar FogSequentialForward.sink avg_balancerTime_1 0.00013467741935484
scalar FogSequentialForward.sink p90_balancerTime_1 0
scalar FogSequentialForward.sink med_balancerTime_1 0
scalar FogSequentialForward.sink avg_balancerCount_1 1.008064516129
scalar FogSequentialForward.sink p90_balancerCount_1 1
scalar FogSequentialForward.sink med_balancerCount_1 1

