version 2
run Fog-mul_1-rho_05-thr_2-0-20190711-22:44:07-62574
attr configname Fog-mul_1-rho_05-thr_2
attr datetime 20190711-22:44:07
attr experiment Fog-mul_1-rho_05-thr_2
attr inifile FogQueueLen.ini
attr iterationvars ""
attr iterationvarsf ""
attr measurement ""
attr network FogNoLB
attr processid 62574
attr repetition 0
attr replication #0
attr resultdir results
attr runnumber 0
attr seedset 0
param FogNoLB.proctimeMul 1
param FogNoLB.rho 0.5
param FogNoLB.fog[*].server[*].capacity 2
param FogNoLB.nSources 100
param FogNoLB.rho 0.9
param FogNoLB.proctimeMul 1.0
param FogNoLB.source[*].appId 1
param FogNoLB.fog[*].nServers 1
param FogNoLB.fog[*].dispatcher.fanOut 1
param FogNoLB.fog[*].server[*].timeSlice -1s
param FogNoLB.fog[*].server[*].capacity 5
param FogNoLB.fog[*].server[*].fifo true
param FogNoLB.fog[*].server[*].maxServiceTime -1s

scalar FogNoLB.fog[0].dispatcher localJobs 3206
scalar FogNoLB.fog[0].dispatcher remoteJobs 0
scalar FogNoLB.fog[0].dispatcher probeQueries 0
scalar FogNoLB.fog[0].dispatcher probeAnswers 0
scalar FogNoLB.fog[0].dispatcher droppedJobsSLA 0
scalar FogNoLB.fog[0].dispatcher jobs_class_1 3206
scalar FogNoLB.fog[0].dispatcher localJobs_class_1 3206
scalar FogNoLB.fog[0].server[0] rho 0.48333391547203
scalar FogNoLB.fog[0].server[0] congestionRatio 0
scalar FogNoLB.fog[0].server[0] totalJobs 3206
scalar FogNoLB.fog[0].server[0] droppedJobsQueue 79
scalar FogNoLB.fog[0].server[0] droppedJobsTimout 0
scalar FogNoLB.fog[0].server[0] droppedJobsSLA 0
scalar FogNoLB.fog[0].server[0] droppedJobsTotal 79
scalar FogNoLB.fog[1].dispatcher localJobs 3211
scalar FogNoLB.fog[1].dispatcher remoteJobs 0
scalar FogNoLB.fog[1].dispatcher probeQueries 0
scalar FogNoLB.fog[1].dispatcher probeAnswers 0
scalar FogNoLB.fog[1].dispatcher droppedJobsSLA 0
scalar FogNoLB.fog[1].dispatcher jobs_class_1 3211
scalar FogNoLB.fog[1].dispatcher localJobs_class_1 3211
scalar FogNoLB.fog[1].server[0] rho 0.48379975557327
scalar FogNoLB.fog[1].server[0] congestionRatio 0
scalar FogNoLB.fog[1].server[0] totalJobs 3211
scalar FogNoLB.fog[1].server[0] droppedJobsQueue 83
scalar FogNoLB.fog[1].server[0] droppedJobsTimout 0
scalar FogNoLB.fog[1].server[0] droppedJobsSLA 0
scalar FogNoLB.fog[1].server[0] droppedJobsTotal 83
scalar FogNoLB.fog[2].dispatcher localJobs 3298
scalar FogNoLB.fog[2].dispatcher remoteJobs 0
scalar FogNoLB.fog[2].dispatcher probeQueries 0
scalar FogNoLB.fog[2].dispatcher probeAnswers 0
scalar FogNoLB.fog[2].dispatcher droppedJobsSLA 0
scalar FogNoLB.fog[2].dispatcher jobs_class_1 3298
scalar FogNoLB.fog[2].dispatcher localJobs_class_1 3298
scalar FogNoLB.fog[2].server[0] rho 0.49632927775383
scalar FogNoLB.fog[2].server[0] congestionRatio 0
scalar FogNoLB.fog[2].server[0] totalJobs 3298
scalar FogNoLB.fog[2].server[0] droppedJobsQueue 89
scalar FogNoLB.fog[2].server[0] droppedJobsTimout 0
scalar FogNoLB.fog[2].server[0] droppedJobsSLA 0
scalar FogNoLB.fog[2].server[0] droppedJobsTotal 89
scalar FogNoLB.fog[3].dispatcher localJobs 3267
scalar FogNoLB.fog[3].dispatcher remoteJobs 0
scalar FogNoLB.fog[3].dispatcher probeQueries 0
scalar FogNoLB.fog[3].dispatcher probeAnswers 0
scalar FogNoLB.fog[3].dispatcher droppedJobsSLA 0
scalar FogNoLB.fog[3].dispatcher jobs_class_1 3267
scalar FogNoLB.fog[3].dispatcher localJobs_class_1 3267
scalar FogNoLB.fog[3].server[0] rho 0.49189135432243
scalar FogNoLB.fog[3].server[0] congestionRatio 0
scalar FogNoLB.fog[3].server[0] totalJobs 3267
scalar FogNoLB.fog[3].server[0] droppedJobsQueue 85
scalar FogNoLB.fog[3].server[0] droppedJobsTimout 0
scalar FogNoLB.fog[3].server[0] droppedJobsSLA 0
scalar FogNoLB.fog[3].server[0] droppedJobsTotal 85
scalar FogNoLB.fog[4].dispatcher localJobs 3310
scalar FogNoLB.fog[4].dispatcher remoteJobs 0
scalar FogNoLB.fog[4].dispatcher probeQueries 0
scalar FogNoLB.fog[4].dispatcher probeAnswers 0
scalar FogNoLB.fog[4].dispatcher droppedJobsSLA 0
scalar FogNoLB.fog[4].dispatcher jobs_class_1 3310
scalar FogNoLB.fog[4].dispatcher localJobs_class_1 3310
scalar FogNoLB.fog[4].server[0] rho 0.49704122543335
scalar FogNoLB.fog[4].server[0] congestionRatio 0
scalar FogNoLB.fog[4].server[0] totalJobs 3310
scalar FogNoLB.fog[4].server[0] droppedJobsQueue 92
scalar FogNoLB.fog[4].server[0] droppedJobsTimout 0
scalar FogNoLB.fog[4].server[0] droppedJobsSLA 0
scalar FogNoLB.fog[4].server[0] droppedJobsTotal 92
scalar FogNoLB.fog[5].dispatcher localJobs 3199
scalar FogNoLB.fog[5].dispatcher remoteJobs 0
scalar FogNoLB.fog[5].dispatcher probeQueries 0
scalar FogNoLB.fog[5].dispatcher probeAnswers 0
scalar FogNoLB.fog[5].dispatcher droppedJobsSLA 0
scalar FogNoLB.fog[5].dispatcher jobs_class_1 3199
scalar FogNoLB.fog[5].dispatcher localJobs_class_1 3199
scalar FogNoLB.fog[5].server[0] rho 0.48157560825348
scalar FogNoLB.fog[5].server[0] congestionRatio 0
scalar FogNoLB.fog[5].server[0] totalJobs 3199
scalar FogNoLB.fog[5].server[0] droppedJobsQueue 83
scalar FogNoLB.fog[5].server[0] droppedJobsTimout 0
scalar FogNoLB.fog[5].server[0] droppedJobsSLA 0
scalar FogNoLB.fog[5].server[0] droppedJobsTotal 83
scalar FogNoLB.fog[6].dispatcher localJobs 3254
scalar FogNoLB.fog[6].dispatcher remoteJobs 0
scalar FogNoLB.fog[6].dispatcher probeQueries 0
scalar FogNoLB.fog[6].dispatcher probeAnswers 0
scalar FogNoLB.fog[6].dispatcher droppedJobsSLA 0
scalar FogNoLB.fog[6].dispatcher jobs_class_1 3254
scalar FogNoLB.fog[6].dispatcher localJobs_class_1 3254
scalar FogNoLB.fog[6].server[0] rho 0.48790875077248
scalar FogNoLB.fog[6].server[0] congestionRatio 0
scalar FogNoLB.fog[6].server[0] totalJobs 3254
scalar FogNoLB.fog[6].server[0] droppedJobsQueue 98
scalar FogNoLB.fog[6].server[0] droppedJobsTimout 0
scalar FogNoLB.fog[6].server[0] droppedJobsSLA 0
scalar FogNoLB.fog[6].server[0] droppedJobsTotal 98
scalar FogNoLB.fog[7].dispatcher localJobs 3245
scalar FogNoLB.fog[7].dispatcher remoteJobs 0
scalar FogNoLB.fog[7].dispatcher probeQueries 0
scalar FogNoLB.fog[7].dispatcher probeAnswers 0
scalar FogNoLB.fog[7].dispatcher droppedJobsSLA 0
scalar FogNoLB.fog[7].dispatcher jobs_class_1 3245
scalar FogNoLB.fog[7].dispatcher localJobs_class_1 3245
scalar FogNoLB.fog[7].server[0] rho 0.49172633886337
scalar FogNoLB.fog[7].server[0] congestionRatio 0
scalar FogNoLB.fog[7].server[0] totalJobs 3245
scalar FogNoLB.fog[7].server[0] droppedJobsQueue 65
scalar FogNoLB.fog[7].server[0] droppedJobsTimout 0
scalar FogNoLB.fog[7].server[0] droppedJobsSLA 0
scalar FogNoLB.fog[7].server[0] droppedJobsTotal 65
scalar FogNoLB.fog[8].dispatcher localJobs 3103
scalar FogNoLB.fog[8].dispatcher remoteJobs 0
scalar FogNoLB.fog[8].dispatcher probeQueries 0
scalar FogNoLB.fog[8].dispatcher probeAnswers 0
scalar FogNoLB.fog[8].dispatcher droppedJobsSLA 0
scalar FogNoLB.fog[8].dispatcher jobs_class_1 3103
scalar FogNoLB.fog[8].dispatcher localJobs_class_1 3103
scalar FogNoLB.fog[8].server[0] rho 0.4672104716301
scalar FogNoLB.fog[8].server[0] congestionRatio 0
scalar FogNoLB.fog[8].server[0] totalJobs 3103
scalar FogNoLB.fog[8].server[0] droppedJobsQueue 81
scalar FogNoLB.fog[8].server[0] droppedJobsTimout 0
scalar FogNoLB.fog[8].server[0] droppedJobsSLA 0
scalar FogNoLB.fog[8].server[0] droppedJobsTotal 81
scalar FogNoLB.fog[9].dispatcher localJobs 3270
scalar FogNoLB.fog[9].dispatcher remoteJobs 0
scalar FogNoLB.fog[9].dispatcher probeQueries 0
scalar FogNoLB.fog[9].dispatcher probeAnswers 0
scalar FogNoLB.fog[9].dispatcher droppedJobsSLA 0
scalar FogNoLB.fog[9].dispatcher jobs_class_1 3270
scalar FogNoLB.fog[9].dispatcher localJobs_class_1 3270
scalar FogNoLB.fog[9].server[0] rho 0.49003455042839
scalar FogNoLB.fog[9].server[0] congestionRatio 0
scalar FogNoLB.fog[9].server[0] totalJobs 3270
scalar FogNoLB.fog[9].server[0] droppedJobsQueue 101
scalar FogNoLB.fog[9].server[0] droppedJobsTimout 0
scalar FogNoLB.fog[9].server[0] droppedJobsSLA 0
scalar FogNoLB.fog[9].server[0] droppedJobsTotal 101
scalar FogNoLB.fog[10].dispatcher localJobs 3272
scalar FogNoLB.fog[10].dispatcher remoteJobs 0
scalar FogNoLB.fog[10].dispatcher probeQueries 0
scalar FogNoLB.fog[10].dispatcher probeAnswers 0
scalar FogNoLB.fog[10].dispatcher droppedJobsSLA 0
scalar FogNoLB.fog[10].dispatcher jobs_class_1 3272
scalar FogNoLB.fog[10].dispatcher localJobs_class_1 3272
scalar FogNoLB.fog[10].server[0] rho 0.49036169052124
scalar FogNoLB.fog[10].server[0] congestionRatio 0
scalar FogNoLB.fog[10].server[0] totalJobs 3272
scalar FogNoLB.fog[10].server[0] droppedJobsQueue 102
scalar FogNoLB.fog[10].server[0] droppedJobsTimout 0
scalar FogNoLB.fog[10].server[0] droppedJobsSLA 0
scalar FogNoLB.fog[10].server[0] droppedJobsTotal 102
scalar FogNoLB.fog[11].dispatcher localJobs 3205
scalar FogNoLB.fog[11].dispatcher remoteJobs 0
scalar FogNoLB.fog[11].dispatcher probeQueries 0
scalar FogNoLB.fog[11].dispatcher probeAnswers 0
scalar FogNoLB.fog[11].dispatcher droppedJobsSLA 0
scalar FogNoLB.fog[11].dispatcher jobs_class_1 3205
scalar FogNoLB.fog[11].dispatcher localJobs_class_1 3205
scalar FogNoLB.fog[11].server[0] rho 0.48124712705612
scalar FogNoLB.fog[11].server[0] congestionRatio 0
scalar FogNoLB.fog[11].server[0] totalJobs 3205
scalar FogNoLB.fog[11].server[0] droppedJobsQueue 95
scalar FogNoLB.fog[11].server[0] droppedJobsTimout 0
scalar FogNoLB.fog[11].server[0] droppedJobsSLA 0
scalar FogNoLB.fog[11].server[0] droppedJobsTotal 95
scalar FogNoLB.fog[12].dispatcher localJobs 3169
scalar FogNoLB.fog[12].dispatcher remoteJobs 0
scalar FogNoLB.fog[12].dispatcher probeQueries 0
scalar FogNoLB.fog[12].dispatcher probeAnswers 0
scalar FogNoLB.fog[12].dispatcher droppedJobsSLA 0
scalar FogNoLB.fog[12].dispatcher jobs_class_1 3169
scalar FogNoLB.fog[12].dispatcher localJobs_class_1 3169
scalar FogNoLB.fog[12].server[0] rho 0.47397977113724
scalar FogNoLB.fog[12].server[0] congestionRatio 0
scalar FogNoLB.fog[12].server[0] totalJobs 3169
scalar FogNoLB.fog[12].server[0] droppedJobsQueue 103
scalar FogNoLB.fog[12].server[0] droppedJobsTimout 0
scalar FogNoLB.fog[12].server[0] droppedJobsSLA 0
scalar FogNoLB.fog[12].server[0] droppedJobsTotal 103
scalar FogNoLB.fog[13].dispatcher localJobs 3228
scalar FogNoLB.fog[13].dispatcher remoteJobs 0
scalar FogNoLB.fog[13].dispatcher probeQueries 0
scalar FogNoLB.fog[13].dispatcher probeAnswers 0
scalar FogNoLB.fog[13].dispatcher droppedJobsSLA 0
scalar FogNoLB.fog[13].dispatcher jobs_class_1 3228
scalar FogNoLB.fog[13].dispatcher localJobs_class_1 3228
scalar FogNoLB.fog[13].server[0] rho 0.48605304956436
scalar FogNoLB.fog[13].server[0] congestionRatio 0
scalar FogNoLB.fog[13].server[0] totalJobs 3228
scalar FogNoLB.fog[13].server[0] droppedJobsQueue 85
scalar FogNoLB.fog[13].server[0] droppedJobsTimout 0
scalar FogNoLB.fog[13].server[0] droppedJobsSLA 0
scalar FogNoLB.fog[13].server[0] droppedJobsTotal 85
scalar FogNoLB.fog[14].dispatcher localJobs 3292
scalar FogNoLB.fog[14].dispatcher remoteJobs 0
scalar FogNoLB.fog[14].dispatcher probeQueries 0
scalar FogNoLB.fog[14].dispatcher probeAnswers 0
scalar FogNoLB.fog[14].dispatcher droppedJobsSLA 0
scalar FogNoLB.fog[14].dispatcher jobs_class_1 3292
scalar FogNoLB.fog[14].dispatcher localJobs_class_1 3292
scalar FogNoLB.fog[14].server[0] rho 0.49255511164665
scalar FogNoLB.fog[14].server[0] congestionRatio 0
scalar FogNoLB.fog[14].server[0] totalJobs 3292
scalar FogNoLB.fog[14].server[0] droppedJobsQueue 104
scalar FogNoLB.fog[14].server[0] droppedJobsTimout 0
scalar FogNoLB.fog[14].server[0] droppedJobsSLA 0
scalar FogNoLB.fog[14].server[0] droppedJobsTotal 104
scalar FogNoLB.fog[15].dispatcher localJobs 3224
scalar FogNoLB.fog[15].dispatcher remoteJobs 0
scalar FogNoLB.fog[15].dispatcher probeQueries 0
scalar FogNoLB.fog[15].dispatcher probeAnswers 0
scalar FogNoLB.fog[15].dispatcher droppedJobsSLA 0
scalar FogNoLB.fog[15].dispatcher jobs_class_1 3224
scalar FogNoLB.fog[15].dispatcher localJobs_class_1 3224
scalar FogNoLB.fog[15].server[0] rho 0.48428311944008
scalar FogNoLB.fog[15].server[0] congestionRatio 0
scalar FogNoLB.fog[15].server[0] totalJobs 3224
scalar FogNoLB.fog[15].server[0] droppedJobsQueue 92
scalar FogNoLB.fog[15].server[0] droppedJobsTimout 0
scalar FogNoLB.fog[15].server[0] droppedJobsSLA 0
scalar FogNoLB.fog[15].server[0] droppedJobsTotal 92
scalar FogNoLB.fog[16].dispatcher localJobs 3174
scalar FogNoLB.fog[16].dispatcher remoteJobs 0
scalar FogNoLB.fog[16].dispatcher probeQueries 0
scalar FogNoLB.fog[16].dispatcher probeAnswers 0
scalar FogNoLB.fog[16].dispatcher droppedJobsSLA 0
scalar FogNoLB.fog[16].dispatcher jobs_class_1 3174
scalar FogNoLB.fog[16].dispatcher localJobs_class_1 3174
scalar FogNoLB.fog[16].server[0] rho 0.47878271341324
scalar FogNoLB.fog[16].server[0] congestionRatio 0
scalar FogNoLB.fog[16].server[0] totalJobs 3174
scalar FogNoLB.fog[16].server[0] droppedJobsQueue 77
scalar FogNoLB.fog[16].server[0] droppedJobsTimout 0
scalar FogNoLB.fog[16].server[0] droppedJobsSLA 0
scalar FogNoLB.fog[16].server[0] droppedJobsTotal 77
scalar FogNoLB.fog[17].dispatcher localJobs 3132
scalar FogNoLB.fog[17].dispatcher remoteJobs 0
scalar FogNoLB.fog[17].dispatcher probeQueries 0
scalar FogNoLB.fog[17].dispatcher probeAnswers 0
scalar FogNoLB.fog[17].dispatcher droppedJobsSLA 0
scalar FogNoLB.fog[17].dispatcher jobs_class_1 3132
scalar FogNoLB.fog[17].dispatcher localJobs_class_1 3132
scalar FogNoLB.fog[17].server[0] rho 0.47307440638542
scalar FogNoLB.fog[17].server[0] congestionRatio 0
scalar FogNoLB.fog[17].server[0] totalJobs 3132
scalar FogNoLB.fog[17].server[0] droppedJobsQueue 73
scalar FogNoLB.fog[17].server[0] droppedJobsTimout 0
scalar FogNoLB.fog[17].server[0] droppedJobsSLA 0
scalar FogNoLB.fog[17].server[0] droppedJobsTotal 73
scalar FogNoLB.fog[18].dispatcher localJobs 3249
scalar FogNoLB.fog[18].dispatcher remoteJobs 0
scalar FogNoLB.fog[18].dispatcher probeQueries 0
scalar FogNoLB.fog[18].dispatcher probeAnswers 0
scalar FogNoLB.fog[18].dispatcher droppedJobsSLA 0
scalar FogNoLB.fog[18].dispatcher jobs_class_1 3249
scalar FogNoLB.fog[18].dispatcher localJobs_class_1 3249
scalar FogNoLB.fog[18].server[0] rho 0.48795583844185
scalar FogNoLB.fog[18].server[0] congestionRatio 0
scalar FogNoLB.fog[18].server[0] totalJobs 3249
scalar FogNoLB.fog[18].server[0] droppedJobsQueue 95
scalar FogNoLB.fog[18].server[0] droppedJobsTimout 0
scalar FogNoLB.fog[18].server[0] droppedJobsSLA 0
scalar FogNoLB.fog[18].server[0] droppedJobsTotal 95
scalar FogNoLB.fog[19].dispatcher localJobs 3300
scalar FogNoLB.fog[19].dispatcher remoteJobs 0
scalar FogNoLB.fog[19].dispatcher probeQueries 0
scalar FogNoLB.fog[19].dispatcher probeAnswers 0
scalar FogNoLB.fog[19].dispatcher droppedJobsSLA 0
scalar FogNoLB.fog[19].dispatcher jobs_class_1 3300
scalar FogNoLB.fog[19].dispatcher localJobs_class_1 3300
scalar FogNoLB.fog[19].server[0] rho 0.49425247311592
scalar FogNoLB.fog[19].server[0] congestionRatio 0
scalar FogNoLB.fog[19].server[0] totalJobs 3300
scalar FogNoLB.fog[19].server[0] droppedJobsQueue 102
scalar FogNoLB.fog[19].server[0] droppedJobsTimout 0
scalar FogNoLB.fog[19].server[0] droppedJobsSLA 0
scalar FogNoLB.fog[19].server[0] droppedJobsTotal 102
scalar FogNoLB.fog[20].dispatcher localJobs 3229
scalar FogNoLB.fog[20].dispatcher remoteJobs 0
scalar FogNoLB.fog[20].dispatcher probeQueries 0
scalar FogNoLB.fog[20].dispatcher probeAnswers 0
scalar FogNoLB.fog[20].dispatcher droppedJobsSLA 0
scalar FogNoLB.fog[20].dispatcher jobs_class_1 3229
scalar FogNoLB.fog[20].dispatcher localJobs_class_1 3229
scalar FogNoLB.fog[20].server[0] rho 0.48728337883949
scalar FogNoLB.fog[20].server[0] congestionRatio 0
scalar FogNoLB.fog[20].server[0] totalJobs 3229
scalar FogNoLB.fog[20].server[0] droppedJobsQueue 77
scalar FogNoLB.fog[20].server[0] droppedJobsTimout 0
scalar FogNoLB.fog[20].server[0] droppedJobsSLA 0
scalar FogNoLB.fog[20].server[0] droppedJobsTotal 77
scalar FogNoLB.fog[21].dispatcher localJobs 3202
scalar FogNoLB.fog[21].dispatcher remoteJobs 0
scalar FogNoLB.fog[21].dispatcher probeQueries 0
scalar FogNoLB.fog[21].dispatcher probeAnswers 0
scalar FogNoLB.fog[21].dispatcher droppedJobsSLA 0
scalar FogNoLB.fog[21].dispatcher jobs_class_1 3202
scalar FogNoLB.fog[21].dispatcher localJobs_class_1 3202
scalar FogNoLB.fog[21].server[0] rho 0.48119634389877
scalar FogNoLB.fog[21].server[0] congestionRatio 0
scalar FogNoLB.fog[21].server[0] totalJobs 3202
scalar FogNoLB.fog[21].server[0] droppedJobsQueue 92
scalar FogNoLB.fog[21].server[0] droppedJobsTimout 0
scalar FogNoLB.fog[21].server[0] droppedJobsSLA 0
scalar FogNoLB.fog[21].server[0] droppedJobsTotal 92
scalar FogNoLB.fog[22].dispatcher localJobs 3262
scalar FogNoLB.fog[22].dispatcher remoteJobs 0
scalar FogNoLB.fog[22].dispatcher probeQueries 0
scalar FogNoLB.fog[22].dispatcher probeAnswers 0
scalar FogNoLB.fog[22].dispatcher droppedJobsSLA 0
scalar FogNoLB.fog[22].dispatcher jobs_class_1 3262
scalar FogNoLB.fog[22].dispatcher localJobs_class_1 3262
scalar FogNoLB.fog[22].server[0] rho 0.48898622393608
scalar FogNoLB.fog[22].server[0] congestionRatio 0
scalar FogNoLB.fog[22].server[0] totalJobs 3262
scalar FogNoLB.fog[22].server[0] droppedJobsQueue 99
scalar FogNoLB.fog[22].server[0] droppedJobsTimout 0
scalar FogNoLB.fog[22].server[0] droppedJobsSLA 0
scalar FogNoLB.fog[22].server[0] droppedJobsTotal 99
scalar FogNoLB.fog[23].dispatcher localJobs 3141
scalar FogNoLB.fog[23].dispatcher remoteJobs 0
scalar FogNoLB.fog[23].dispatcher probeQueries 0
scalar FogNoLB.fog[23].dispatcher probeAnswers 0
scalar FogNoLB.fog[23].dispatcher droppedJobsSLA 0
scalar FogNoLB.fog[23].dispatcher jobs_class_1 3141
scalar FogNoLB.fog[23].dispatcher localJobs_class_1 3141
scalar FogNoLB.fog[23].server[0] rho 0.47575697302818
scalar FogNoLB.fog[23].server[0] congestionRatio 0
scalar FogNoLB.fog[23].server[0] totalJobs 3141
scalar FogNoLB.fog[23].server[0] droppedJobsQueue 65
scalar FogNoLB.fog[23].server[0] droppedJobsTimout 0
scalar FogNoLB.fog[23].server[0] droppedJobsSLA 0
scalar FogNoLB.fog[23].server[0] droppedJobsTotal 65
scalar FogNoLB.fog[24].dispatcher localJobs 3215
scalar FogNoLB.fog[24].dispatcher remoteJobs 0
scalar FogNoLB.fog[24].dispatcher probeQueries 0
scalar FogNoLB.fog[24].dispatcher probeAnswers 0
scalar FogNoLB.fog[24].dispatcher droppedJobsSLA 0
scalar FogNoLB.fog[24].dispatcher jobs_class_1 3215
scalar FogNoLB.fog[24].dispatcher localJobs_class_1 3215
scalar FogNoLB.fog[24].server[0] rho 0.48601654171944
scalar FogNoLB.fog[24].server[0] congestionRatio 0
scalar FogNoLB.fog[24].server[0] totalJobs 3215
scalar FogNoLB.fog[24].server[0] droppedJobsQueue 74
scalar FogNoLB.fog[24].server[0] droppedJobsTimout 0
scalar FogNoLB.fog[24].server[0] droppedJobsSLA 0
scalar FogNoLB.fog[24].server[0] droppedJobsTotal 74
scalar FogNoLB.fog[25].dispatcher localJobs 3278
scalar FogNoLB.fog[25].dispatcher remoteJobs 0
scalar FogNoLB.fog[25].dispatcher probeQueries 0
scalar FogNoLB.fog[25].dispatcher probeAnswers 0
scalar FogNoLB.fog[25].dispatcher droppedJobsSLA 0
scalar FogNoLB.fog[25].dispatcher jobs_class_1 3278
scalar FogNoLB.fog[25].dispatcher localJobs_class_1 3278
scalar FogNoLB.fog[25].server[0] rho 0.49191176891327
scalar FogNoLB.fog[25].server[0] congestionRatio 0
scalar FogNoLB.fog[25].server[0] totalJobs 3278
scalar FogNoLB.fog[25].server[0] droppedJobsQueue 94
scalar FogNoLB.fog[25].server[0] droppedJobsTimout 0
scalar FogNoLB.fog[25].server[0] droppedJobsSLA 0
scalar FogNoLB.fog[25].server[0] droppedJobsTotal 94
scalar FogNoLB.fog[26].dispatcher localJobs 3245
scalar FogNoLB.fog[26].dispatcher remoteJobs 0
scalar FogNoLB.fog[26].dispatcher probeQueries 0
scalar FogNoLB.fog[26].dispatcher probeAnswers 0
scalar FogNoLB.fog[26].dispatcher droppedJobsSLA 0
scalar FogNoLB.fog[26].dispatcher jobs_class_1 3245
scalar FogNoLB.fog[26].dispatcher localJobs_class_1 3245
scalar FogNoLB.fog[26].server[0] rho 0.48709866404533
scalar FogNoLB.fog[26].server[0] congestionRatio 0
scalar FogNoLB.fog[26].server[0] totalJobs 3245
scalar FogNoLB.fog[26].server[0] droppedJobsQueue 95
scalar FogNoLB.fog[26].server[0] droppedJobsTimout 0
scalar FogNoLB.fog[26].server[0] droppedJobsSLA 0
scalar FogNoLB.fog[26].server[0] droppedJobsTotal 95
scalar FogNoLB.fog[27].dispatcher localJobs 3197
scalar FogNoLB.fog[27].dispatcher remoteJobs 0
scalar FogNoLB.fog[27].dispatcher probeQueries 0
scalar FogNoLB.fog[27].dispatcher probeAnswers 0
scalar FogNoLB.fog[27].dispatcher droppedJobsSLA 0
scalar FogNoLB.fog[27].dispatcher jobs_class_1 3197
scalar FogNoLB.fog[27].dispatcher localJobs_class_1 3197
scalar FogNoLB.fog[27].server[0] rho 0.47830429673195
scalar FogNoLB.fog[27].server[0] congestionRatio 0
scalar FogNoLB.fog[27].server[0] totalJobs 3197
scalar FogNoLB.fog[27].server[0] droppedJobsQueue 101
scalar FogNoLB.fog[27].server[0] droppedJobsTimout 0
scalar FogNoLB.fog[27].server[0] droppedJobsSLA 0
scalar FogNoLB.fog[27].server[0] droppedJobsTotal 101
scalar FogNoLB.fog[28].dispatcher localJobs 3232
scalar FogNoLB.fog[28].dispatcher remoteJobs 0
scalar FogNoLB.fog[28].dispatcher probeQueries 0
scalar FogNoLB.fog[28].dispatcher probeAnswers 0
scalar FogNoLB.fog[28].dispatcher droppedJobsSLA 0
scalar FogNoLB.fog[28].dispatcher jobs_class_1 3232
scalar FogNoLB.fog[28].dispatcher localJobs_class_1 3232
scalar FogNoLB.fog[28].server[0] rho 0.48505204916
scalar FogNoLB.fog[28].server[0] congestionRatio 0
scalar FogNoLB.fog[28].server[0] totalJobs 3232
scalar FogNoLB.fog[28].server[0] droppedJobsQueue 94
scalar FogNoLB.fog[28].server[0] droppedJobsTimout 0
scalar FogNoLB.fog[28].server[0] droppedJobsSLA 0
scalar FogNoLB.fog[28].server[0] droppedJobsTotal 94
scalar FogNoLB.fog[29].dispatcher localJobs 3232
scalar FogNoLB.fog[29].dispatcher remoteJobs 0
scalar FogNoLB.fog[29].dispatcher probeQueries 0
scalar FogNoLB.fog[29].dispatcher probeAnswers 0
scalar FogNoLB.fog[29].dispatcher droppedJobsSLA 0
scalar FogNoLB.fog[29].dispatcher jobs_class_1 3232
scalar FogNoLB.fog[29].dispatcher localJobs_class_1 3232
scalar FogNoLB.fog[29].server[0] rho 0.48709639906883
scalar FogNoLB.fog[29].server[0] congestionRatio 0
scalar FogNoLB.fog[29].server[0] totalJobs 3232
scalar FogNoLB.fog[29].server[0] droppedJobsQueue 83
scalar FogNoLB.fog[29].server[0] droppedJobsTimout 0
scalar FogNoLB.fog[29].server[0] droppedJobsSLA 0
scalar FogNoLB.fog[29].server[0] droppedJobsTotal 83
scalar FogNoLB.fog[30].dispatcher localJobs 3229
scalar FogNoLB.fog[30].dispatcher remoteJobs 0
scalar FogNoLB.fog[30].dispatcher probeQueries 0
scalar FogNoLB.fog[30].dispatcher probeAnswers 0
scalar FogNoLB.fog[30].dispatcher droppedJobsSLA 0
scalar FogNoLB.fog[30].dispatcher jobs_class_1 3229
scalar FogNoLB.fog[30].dispatcher localJobs_class_1 3229
scalar FogNoLB.fog[30].server[0] rho 0.48756584525108
scalar FogNoLB.fog[30].server[0] congestionRatio 0
scalar FogNoLB.fog[30].server[0] totalJobs 3229
scalar FogNoLB.fog[30].server[0] droppedJobsQueue 76
scalar FogNoLB.fog[30].server[0] droppedJobsTimout 0
scalar FogNoLB.fog[30].server[0] droppedJobsSLA 0
scalar FogNoLB.fog[30].server[0] droppedJobsTotal 76
scalar FogNoLB.fog[31].dispatcher localJobs 3264
scalar FogNoLB.fog[31].dispatcher remoteJobs 0
scalar FogNoLB.fog[31].dispatcher probeQueries 0
scalar FogNoLB.fog[31].dispatcher probeAnswers 0
scalar FogNoLB.fog[31].dispatcher droppedJobsSLA 0
scalar FogNoLB.fog[31].dispatcher jobs_class_1 3264
scalar FogNoLB.fog[31].dispatcher localJobs_class_1 3264
scalar FogNoLB.fog[31].server[0] rho 0.49038326740265
scalar FogNoLB.fog[31].server[0] congestionRatio 0
scalar FogNoLB.fog[31].server[0] totalJobs 3264
scalar FogNoLB.fog[31].server[0] droppedJobsQueue 94
scalar FogNoLB.fog[31].server[0] droppedJobsTimout 0
scalar FogNoLB.fog[31].server[0] droppedJobsSLA 0
scalar FogNoLB.fog[31].server[0] droppedJobsTotal 94
scalar FogNoLB.fog[32].dispatcher localJobs 3192
scalar FogNoLB.fog[32].dispatcher remoteJobs 0
scalar FogNoLB.fog[32].dispatcher probeQueries 0
scalar FogNoLB.fog[32].dispatcher probeAnswers 0
scalar FogNoLB.fog[32].dispatcher droppedJobsSLA 0
scalar FogNoLB.fog[32].dispatcher jobs_class_1 3192
scalar FogNoLB.fog[32].dispatcher localJobs_class_1 3192
scalar FogNoLB.fog[32].server[0] rho 0.48215228319168
scalar FogNoLB.fog[32].server[0] congestionRatio 0
scalar FogNoLB.fog[32].server[0] totalJobs 3192
scalar FogNoLB.fog[32].server[0] droppedJobsQueue 73
scalar FogNoLB.fog[32].server[0] droppedJobsTimout 0
scalar FogNoLB.fog[32].server[0] droppedJobsSLA 0
scalar FogNoLB.fog[32].server[0] droppedJobsTotal 73
scalar FogNoLB.fog[33].dispatcher localJobs 3124
scalar FogNoLB.fog[33].dispatcher remoteJobs 0
scalar FogNoLB.fog[33].dispatcher probeQueries 0
scalar FogNoLB.fog[33].dispatcher probeAnswers 0
scalar FogNoLB.fog[33].dispatcher droppedJobsSLA 0
scalar FogNoLB.fog[33].dispatcher jobs_class_1 3124
scalar FogNoLB.fog[33].dispatcher localJobs_class_1 3124
scalar FogNoLB.fog[33].server[0] rho 0.47086307406425
scalar FogNoLB.fog[33].server[0] congestionRatio 0
scalar FogNoLB.fog[33].server[0] totalJobs 3124
scalar FogNoLB.fog[33].server[0] droppedJobsQueue 78
scalar FogNoLB.fog[33].server[0] droppedJobsTimout 0
scalar FogNoLB.fog[33].server[0] droppedJobsSLA 0
scalar FogNoLB.fog[33].server[0] droppedJobsTotal 78
scalar FogNoLB.fog[34].dispatcher localJobs 3334
scalar FogNoLB.fog[34].dispatcher remoteJobs 0
scalar FogNoLB.fog[34].dispatcher probeQueries 0
scalar FogNoLB.fog[34].dispatcher probeAnswers 0
scalar FogNoLB.fog[34].dispatcher droppedJobsSLA 0
scalar FogNoLB.fog[34].dispatcher jobs_class_1 3334
scalar FogNoLB.fog[34].dispatcher localJobs_class_1 3334
scalar FogNoLB.fog[34].server[0] rho 0.49721759557724
scalar FogNoLB.fog[34].server[0] congestionRatio 0
scalar FogNoLB.fog[34].server[0] totalJobs 3334
scalar FogNoLB.fog[34].server[0] droppedJobsQueue 118
scalar FogNoLB.fog[34].server[0] droppedJobsTimout 0
scalar FogNoLB.fog[34].server[0] droppedJobsSLA 0
scalar FogNoLB.fog[34].server[0] droppedJobsTotal 118
scalar FogNoLB.fog[35].dispatcher localJobs 3176
scalar FogNoLB.fog[35].dispatcher remoteJobs 0
scalar FogNoLB.fog[35].dispatcher probeQueries 0
scalar FogNoLB.fog[35].dispatcher probeAnswers 0
scalar FogNoLB.fog[35].dispatcher droppedJobsSLA 0
scalar FogNoLB.fog[35].dispatcher jobs_class_1 3176
scalar FogNoLB.fog[35].dispatcher localJobs_class_1 3176
scalar FogNoLB.fog[35].server[0] rho 0.47568842768669
scalar FogNoLB.fog[35].server[0] congestionRatio 0
scalar FogNoLB.fog[35].server[0] totalJobs 3176
scalar FogNoLB.fog[35].server[0] droppedJobsQueue 99
scalar FogNoLB.fog[35].server[0] droppedJobsTimout 0
scalar FogNoLB.fog[35].server[0] droppedJobsSLA 0
scalar FogNoLB.fog[35].server[0] droppedJobsTotal 99
scalar FogNoLB.fog[36].dispatcher localJobs 3295
scalar FogNoLB.fog[36].dispatcher remoteJobs 0
scalar FogNoLB.fog[36].dispatcher probeQueries 0
scalar FogNoLB.fog[36].dispatcher probeAnswers 0
scalar FogNoLB.fog[36].dispatcher droppedJobsSLA 0
scalar FogNoLB.fog[36].dispatcher jobs_class_1 3295
scalar FogNoLB.fog[36].dispatcher localJobs_class_1 3295
scalar FogNoLB.fog[36].server[0] rho 0.49380534887314
scalar FogNoLB.fog[36].server[0] congestionRatio 0
scalar FogNoLB.fog[36].server[0] totalJobs 3295
scalar FogNoLB.fog[36].server[0] droppedJobsQueue 102
scalar FogNoLB.fog[36].server[0] droppedJobsTimout 0
scalar FogNoLB.fog[36].server[0] droppedJobsSLA 0
scalar FogNoLB.fog[36].server[0] droppedJobsTotal 102
scalar FogNoLB.fog[37].dispatcher localJobs 3315
scalar FogNoLB.fog[37].dispatcher remoteJobs 0
scalar FogNoLB.fog[37].dispatcher probeQueries 0
scalar FogNoLB.fog[37].dispatcher probeAnswers 0
scalar FogNoLB.fog[37].dispatcher droppedJobsSLA 0
scalar FogNoLB.fog[37].dispatcher jobs_class_1 3315
scalar FogNoLB.fog[37].dispatcher localJobs_class_1 3315
scalar FogNoLB.fog[37].server[0] rho 0.49680128693581
scalar FogNoLB.fog[37].server[0] congestionRatio 0
scalar FogNoLB.fog[37].server[0] totalJobs 3315
scalar FogNoLB.fog[37].server[0] droppedJobsQueue 103
scalar FogNoLB.fog[37].server[0] droppedJobsTimout 0
scalar FogNoLB.fog[37].server[0] droppedJobsSLA 0
scalar FogNoLB.fog[37].server[0] droppedJobsTotal 103
scalar FogNoLB.fog[38].dispatcher localJobs 3304
scalar FogNoLB.fog[38].dispatcher remoteJobs 0
scalar FogNoLB.fog[38].dispatcher probeQueries 0
scalar FogNoLB.fog[38].dispatcher probeAnswers 0
scalar FogNoLB.fog[38].dispatcher droppedJobsSLA 0
scalar FogNoLB.fog[38].dispatcher jobs_class_1 3304
scalar FogNoLB.fog[38].dispatcher localJobs_class_1 3304
scalar FogNoLB.fog[38].server[0] rho 0.49738883972168
scalar FogNoLB.fog[38].server[0] congestionRatio 0
scalar FogNoLB.fog[38].server[0] totalJobs 3304
scalar FogNoLB.fog[38].server[0] droppedJobsQueue 89
scalar FogNoLB.fog[38].server[0] droppedJobsTimout 0
scalar FogNoLB.fog[38].server[0] droppedJobsSLA 0
scalar FogNoLB.fog[38].server[0] droppedJobsTotal 89
scalar FogNoLB.fog[39].dispatcher localJobs 3289
scalar FogNoLB.fog[39].dispatcher remoteJobs 0
scalar FogNoLB.fog[39].dispatcher probeQueries 0
scalar FogNoLB.fog[39].dispatcher probeAnswers 0
scalar FogNoLB.fog[39].dispatcher droppedJobsSLA 0
scalar FogNoLB.fog[39].dispatcher jobs_class_1 3289
scalar FogNoLB.fog[39].dispatcher localJobs_class_1 3289
scalar FogNoLB.fog[39].server[0] rho 0.49345409870148
scalar FogNoLB.fog[39].server[0] congestionRatio 0
scalar FogNoLB.fog[39].server[0] totalJobs 3289
scalar FogNoLB.fog[39].server[0] droppedJobsQueue 98
scalar FogNoLB.fog[39].server[0] droppedJobsTimout 0
scalar FogNoLB.fog[39].server[0] droppedJobsSLA 0
scalar FogNoLB.fog[39].server[0] droppedJobsTotal 98
scalar FogNoLB.fog[40].dispatcher localJobs 3149
scalar FogNoLB.fog[40].dispatcher remoteJobs 0
scalar FogNoLB.fog[40].dispatcher probeQueries 0
scalar FogNoLB.fog[40].dispatcher probeAnswers 0
scalar FogNoLB.fog[40].dispatcher droppedJobsSLA 0
scalar FogNoLB.fog[40].dispatcher jobs_class_1 3149
scalar FogNoLB.fog[40].dispatcher localJobs_class_1 3149
scalar FogNoLB.fog[40].server[0] rho 0.47406598925591
scalar FogNoLB.fog[40].server[0] congestionRatio 0
scalar FogNoLB.fog[40].server[0] totalJobs 3149
scalar FogNoLB.fog[40].server[0] droppedJobsQueue 82
scalar FogNoLB.fog[40].server[0] droppedJobsTimout 0
scalar FogNoLB.fog[40].server[0] droppedJobsSLA 0
scalar FogNoLB.fog[40].server[0] droppedJobsTotal 82
scalar FogNoLB.fog[41].dispatcher localJobs 3224
scalar FogNoLB.fog[41].dispatcher remoteJobs 0
scalar FogNoLB.fog[41].dispatcher probeQueries 0
scalar FogNoLB.fog[41].dispatcher probeAnswers 0
scalar FogNoLB.fog[41].dispatcher droppedJobsSLA 0
scalar FogNoLB.fog[41].dispatcher jobs_class_1 3224
scalar FogNoLB.fog[41].dispatcher localJobs_class_1 3224
scalar FogNoLB.fog[41].server[0] rho 0.48735255002975
scalar FogNoLB.fog[41].server[0] congestionRatio 0
scalar FogNoLB.fog[41].server[0] totalJobs 3224
scalar FogNoLB.fog[41].server[0] droppedJobsQueue 75
scalar FogNoLB.fog[41].server[0] droppedJobsTimout 0
scalar FogNoLB.fog[41].server[0] droppedJobsSLA 0
scalar FogNoLB.fog[41].server[0] droppedJobsTotal 75
scalar FogNoLB.fog[42].dispatcher localJobs 3254
scalar FogNoLB.fog[42].dispatcher remoteJobs 0
scalar FogNoLB.fog[42].dispatcher probeQueries 0
scalar FogNoLB.fog[42].dispatcher probeAnswers 0
scalar FogNoLB.fog[42].dispatcher droppedJobsSLA 0
scalar FogNoLB.fog[42].dispatcher jobs_class_1 3254
scalar FogNoLB.fog[42].dispatcher localJobs_class_1 3254
scalar FogNoLB.fog[42].server[0] rho 0.48778289556503
scalar FogNoLB.fog[42].server[0] congestionRatio 0
scalar FogNoLB.fog[42].server[0] totalJobs 3254
scalar FogNoLB.fog[42].server[0] droppedJobsQueue 100
scalar FogNoLB.fog[42].server[0] droppedJobsTimout 0
scalar FogNoLB.fog[42].server[0] droppedJobsSLA 0
scalar FogNoLB.fog[42].server[0] droppedJobsTotal 100
scalar FogNoLB.fog[43].dispatcher localJobs 3180
scalar FogNoLB.fog[43].dispatcher remoteJobs 0
scalar FogNoLB.fog[43].dispatcher probeQueries 0
scalar FogNoLB.fog[43].dispatcher probeAnswers 0
scalar FogNoLB.fog[43].dispatcher droppedJobsSLA 0
scalar FogNoLB.fog[43].dispatcher jobs_class_1 3180
scalar FogNoLB.fog[43].dispatcher localJobs_class_1 3180
scalar FogNoLB.fog[43].server[0] rho 0.47745549678802
scalar FogNoLB.fog[43].server[0] congestionRatio 0
scalar FogNoLB.fog[43].server[0] totalJobs 3180
scalar FogNoLB.fog[43].server[0] droppedJobsQueue 92
scalar FogNoLB.fog[43].server[0] droppedJobsTimout 0
scalar FogNoLB.fog[43].server[0] droppedJobsSLA 0
scalar FogNoLB.fog[43].server[0] droppedJobsTotal 92
scalar FogNoLB.fog[44].dispatcher localJobs 3327
scalar FogNoLB.fog[44].dispatcher remoteJobs 0
scalar FogNoLB.fog[44].dispatcher probeQueries 0
scalar FogNoLB.fog[44].dispatcher probeAnswers 0
scalar FogNoLB.fog[44].dispatcher droppedJobsSLA 0
scalar FogNoLB.fog[44].dispatcher jobs_class_1 3327
scalar FogNoLB.fog[44].dispatcher localJobs_class_1 3327
scalar FogNoLB.fog[44].server[0] rho 0.4969097673893
scalar FogNoLB.fog[44].server[0] congestionRatio 0
scalar FogNoLB.fog[44].server[0] totalJobs 3327
scalar FogNoLB.fog[44].server[0] droppedJobsQueue 111
scalar FogNoLB.fog[44].server[0] droppedJobsTimout 0
scalar FogNoLB.fog[44].server[0] droppedJobsSLA 0
scalar FogNoLB.fog[44].server[0] droppedJobsTotal 111
scalar FogNoLB.fog[45].dispatcher localJobs 3193
scalar FogNoLB.fog[45].dispatcher remoteJobs 0
scalar FogNoLB.fog[45].dispatcher probeQueries 0
scalar FogNoLB.fog[45].dispatcher probeAnswers 0
scalar FogNoLB.fog[45].dispatcher droppedJobsSLA 0
scalar FogNoLB.fog[45].dispatcher jobs_class_1 3193
scalar FogNoLB.fog[45].dispatcher localJobs_class_1 3193
scalar FogNoLB.fog[45].server[0] rho 0.48059639334679
scalar FogNoLB.fog[45].server[0] congestionRatio 0
scalar FogNoLB.fog[45].server[0] totalJobs 3193
scalar FogNoLB.fog[45].server[0] droppedJobsQueue 84
scalar FogNoLB.fog[45].server[0] droppedJobsTimout 0
scalar FogNoLB.fog[45].server[0] droppedJobsSLA 0
scalar FogNoLB.fog[45].server[0] droppedJobsTotal 84
scalar FogNoLB.fog[46].dispatcher localJobs 3206
scalar FogNoLB.fog[46].dispatcher remoteJobs 0
scalar FogNoLB.fog[46].dispatcher probeQueries 0
scalar FogNoLB.fog[46].dispatcher probeAnswers 0
scalar FogNoLB.fog[46].dispatcher droppedJobsSLA 0
scalar FogNoLB.fog[46].dispatcher jobs_class_1 3206
scalar FogNoLB.fog[46].dispatcher localJobs_class_1 3206
scalar FogNoLB.fog[46].server[0] rho 0.48024821281433
scalar FogNoLB.fog[46].server[0] congestionRatio 0
scalar FogNoLB.fog[46].server[0] totalJobs 3206
scalar FogNoLB.fog[46].server[0] droppedJobsQueue 100
scalar FogNoLB.fog[46].server[0] droppedJobsTimout 0
scalar FogNoLB.fog[46].server[0] droppedJobsSLA 0
scalar FogNoLB.fog[46].server[0] droppedJobsTotal 100
scalar FogNoLB.fog[47].dispatcher localJobs 3287
scalar FogNoLB.fog[47].dispatcher remoteJobs 0
scalar FogNoLB.fog[47].dispatcher probeQueries 0
scalar FogNoLB.fog[47].dispatcher probeAnswers 0
scalar FogNoLB.fog[47].dispatcher droppedJobsSLA 0
scalar FogNoLB.fog[47].dispatcher jobs_class_1 3287
scalar FogNoLB.fog[47].dispatcher localJobs_class_1 3287
scalar FogNoLB.fog[47].server[0] rho 0.49472534656525
scalar FogNoLB.fog[47].server[0] congestionRatio 0
scalar FogNoLB.fog[47].server[0] totalJobs 3287
scalar FogNoLB.fog[47].server[0] droppedJobsQueue 87
scalar FogNoLB.fog[47].server[0] droppedJobsTimout 0
scalar FogNoLB.fog[47].server[0] droppedJobsSLA 0
scalar FogNoLB.fog[47].server[0] droppedJobsTotal 87
scalar FogNoLB.fog[48].dispatcher localJobs 3211
scalar FogNoLB.fog[48].dispatcher remoteJobs 0
scalar FogNoLB.fog[48].dispatcher probeQueries 0
scalar FogNoLB.fog[48].dispatcher probeAnswers 0
scalar FogNoLB.fog[48].dispatcher droppedJobsSLA 0
scalar FogNoLB.fog[48].dispatcher jobs_class_1 3211
scalar FogNoLB.fog[48].dispatcher localJobs_class_1 3211
scalar FogNoLB.fog[48].server[0] rho 0.48251348733902
scalar FogNoLB.fog[48].server[0] congestionRatio 0
scalar FogNoLB.fog[48].server[0] totalJobs 3211
scalar FogNoLB.fog[48].server[0] droppedJobsQueue 91
scalar FogNoLB.fog[48].server[0] droppedJobsTimout 0
scalar FogNoLB.fog[48].server[0] droppedJobsSLA 0
scalar FogNoLB.fog[48].server[0] droppedJobsTotal 91
scalar FogNoLB.fog[49].dispatcher localJobs 3208
scalar FogNoLB.fog[49].dispatcher remoteJobs 0
scalar FogNoLB.fog[49].dispatcher probeQueries 0
scalar FogNoLB.fog[49].dispatcher probeAnswers 0
scalar FogNoLB.fog[49].dispatcher droppedJobsSLA 0
scalar FogNoLB.fog[49].dispatcher jobs_class_1 3208
scalar FogNoLB.fog[49].dispatcher localJobs_class_1 3208
scalar FogNoLB.fog[49].server[0] rho 0.48375782370567
scalar FogNoLB.fog[49].server[0] congestionRatio 0
scalar FogNoLB.fog[49].server[0] totalJobs 3208
scalar FogNoLB.fog[49].server[0] droppedJobsQueue 81
scalar FogNoLB.fog[49].server[0] droppedJobsTimout 0
scalar FogNoLB.fog[49].server[0] droppedJobsSLA 0
scalar FogNoLB.fog[49].server[0] droppedJobsTotal 81
scalar FogNoLB.fog[50].dispatcher localJobs 3229
scalar FogNoLB.fog[50].dispatcher remoteJobs 0
scalar FogNoLB.fog[50].dispatcher probeQueries 0
scalar FogNoLB.fog[50].dispatcher probeAnswers 0
scalar FogNoLB.fog[50].dispatcher droppedJobsSLA 0
scalar FogNoLB.fog[50].dispatcher jobs_class_1 3229
scalar FogNoLB.fog[50].dispatcher localJobs_class_1 3229
scalar FogNoLB.fog[50].server[0] rho 0.48471274971962
scalar FogNoLB.fog[50].server[0] congestionRatio 0
scalar FogNoLB.fog[50].server[0] totalJobs 3229
scalar FogNoLB.fog[50].server[0] droppedJobsQueue 95
scalar FogNoLB.fog[50].server[0] droppedJobsTimout 0
scalar FogNoLB.fog[50].server[0] droppedJobsSLA 0
scalar FogNoLB.fog[50].server[0] droppedJobsTotal 95
scalar FogNoLB.fog[51].dispatcher localJobs 3244
scalar FogNoLB.fog[51].dispatcher remoteJobs 0
scalar FogNoLB.fog[51].dispatcher probeQueries 0
scalar FogNoLB.fog[51].dispatcher probeAnswers 0
scalar FogNoLB.fog[51].dispatcher droppedJobsSLA 0
scalar FogNoLB.fog[51].dispatcher jobs_class_1 3244
scalar FogNoLB.fog[51].dispatcher localJobs_class_1 3244
scalar FogNoLB.fog[51].server[0] rho 0.48861441016197
scalar FogNoLB.fog[51].server[0] congestionRatio 0
scalar FogNoLB.fog[51].server[0] totalJobs 3244
scalar FogNoLB.fog[51].server[0] droppedJobsQueue 86
scalar FogNoLB.fog[51].server[0] droppedJobsTimout 0
scalar FogNoLB.fog[51].server[0] droppedJobsSLA 0
scalar FogNoLB.fog[51].server[0] droppedJobsTotal 86
scalar FogNoLB.fog[52].dispatcher localJobs 3205
scalar FogNoLB.fog[52].dispatcher remoteJobs 0
scalar FogNoLB.fog[52].dispatcher probeQueries 0
scalar FogNoLB.fog[52].dispatcher probeAnswers 0
scalar FogNoLB.fog[52].dispatcher droppedJobsSLA 0
scalar FogNoLB.fog[52].dispatcher jobs_class_1 3205
scalar FogNoLB.fog[52].dispatcher localJobs_class_1 3205
scalar FogNoLB.fog[52].server[0] rho 0.48543903231621
scalar FogNoLB.fog[52].server[0] congestionRatio 0
scalar FogNoLB.fog[52].server[0] totalJobs 3205
scalar FogNoLB.fog[52].server[0] droppedJobsQueue 66
scalar FogNoLB.fog[52].server[0] droppedJobsTimout 0
scalar FogNoLB.fog[52].server[0] droppedJobsSLA 0
scalar FogNoLB.fog[52].server[0] droppedJobsTotal 66
scalar FogNoLB.fog[53].dispatcher localJobs 3149
scalar FogNoLB.fog[53].dispatcher remoteJobs 0
scalar FogNoLB.fog[53].dispatcher probeQueries 0
scalar FogNoLB.fog[53].dispatcher probeAnswers 0
scalar FogNoLB.fog[53].dispatcher droppedJobsSLA 0
scalar FogNoLB.fog[53].dispatcher jobs_class_1 3149
scalar FogNoLB.fog[53].dispatcher localJobs_class_1 3149
scalar FogNoLB.fog[53].server[0] rho 0.47393703460693
scalar FogNoLB.fog[53].server[0] congestionRatio 0
scalar FogNoLB.fog[53].server[0] totalJobs 3149
scalar FogNoLB.fog[53].server[0] droppedJobsQueue 83
scalar FogNoLB.fog[53].server[0] droppedJobsTimout 0
scalar FogNoLB.fog[53].server[0] droppedJobsSLA 0
scalar FogNoLB.fog[53].server[0] droppedJobsTotal 83
scalar FogNoLB.fog[54].dispatcher localJobs 3158
scalar FogNoLB.fog[54].dispatcher remoteJobs 0
scalar FogNoLB.fog[54].dispatcher probeQueries 0
scalar FogNoLB.fog[54].dispatcher probeAnswers 0
scalar FogNoLB.fog[54].dispatcher droppedJobsSLA 0
scalar FogNoLB.fog[54].dispatcher jobs_class_1 3158
scalar FogNoLB.fog[54].dispatcher localJobs_class_1 3158
scalar FogNoLB.fog[54].server[0] rho 0.47431844472885
scalar FogNoLB.fog[54].server[0] congestionRatio 0
scalar FogNoLB.fog[54].server[0] totalJobs 3158
scalar FogNoLB.fog[54].server[0] droppedJobsQueue 89
scalar FogNoLB.fog[54].server[0] droppedJobsTimout 0
scalar FogNoLB.fog[54].server[0] droppedJobsSLA 0
scalar FogNoLB.fog[54].server[0] droppedJobsTotal 89
scalar FogNoLB.fog[55].dispatcher localJobs 3184
scalar FogNoLB.fog[55].dispatcher remoteJobs 0
scalar FogNoLB.fog[55].dispatcher probeQueries 0
scalar FogNoLB.fog[55].dispatcher probeAnswers 0
scalar FogNoLB.fog[55].dispatcher droppedJobsSLA 0
scalar FogNoLB.fog[55].dispatcher jobs_class_1 3184
scalar FogNoLB.fog[55].dispatcher localJobs_class_1 3184
scalar FogNoLB.fog[55].server[0] rho 0.47798007726669
scalar FogNoLB.fog[55].server[0] congestionRatio 0
scalar FogNoLB.fog[55].server[0] totalJobs 3184
scalar FogNoLB.fog[55].server[0] droppedJobsQueue 94
scalar FogNoLB.fog[55].server[0] droppedJobsTimout 0
scalar FogNoLB.fog[55].server[0] droppedJobsSLA 0
scalar FogNoLB.fog[55].server[0] droppedJobsTotal 94
scalar FogNoLB.fog[56].dispatcher localJobs 3192
scalar FogNoLB.fog[56].dispatcher remoteJobs 0
scalar FogNoLB.fog[56].dispatcher probeQueries 0
scalar FogNoLB.fog[56].dispatcher probeAnswers 0
scalar FogNoLB.fog[56].dispatcher droppedJobsSLA 0
scalar FogNoLB.fog[56].dispatcher jobs_class_1 3192
scalar FogNoLB.fog[56].dispatcher localJobs_class_1 3192
scalar FogNoLB.fog[56].server[0] rho 0.4812094271183
scalar FogNoLB.fog[56].server[0] congestionRatio 0
scalar FogNoLB.fog[56].server[0] totalJobs 3192
scalar FogNoLB.fog[56].server[0] droppedJobsQueue 80
scalar FogNoLB.fog[56].server[0] droppedJobsTimout 0
scalar FogNoLB.fog[56].server[0] droppedJobsSLA 0
scalar FogNoLB.fog[56].server[0] droppedJobsTotal 80
scalar FogNoLB.fog[57].dispatcher localJobs 3244
scalar FogNoLB.fog[57].dispatcher remoteJobs 0
scalar FogNoLB.fog[57].dispatcher probeQueries 0
scalar FogNoLB.fog[57].dispatcher probeAnswers 0
scalar FogNoLB.fog[57].dispatcher droppedJobsSLA 0
scalar FogNoLB.fog[57].dispatcher jobs_class_1 3244
scalar FogNoLB.fog[57].dispatcher localJobs_class_1 3244
scalar FogNoLB.fog[57].server[0] rho 0.49006730318069
scalar FogNoLB.fog[57].server[0] congestionRatio 0
scalar FogNoLB.fog[57].server[0] totalJobs 3244
scalar FogNoLB.fog[57].server[0] droppedJobsQueue 75
scalar FogNoLB.fog[57].server[0] droppedJobsTimout 0
scalar FogNoLB.fog[57].server[0] droppedJobsSLA 0
scalar FogNoLB.fog[57].server[0] droppedJobsTotal 75
scalar FogNoLB.fog[58].dispatcher localJobs 3274
scalar FogNoLB.fog[58].dispatcher remoteJobs 0
scalar FogNoLB.fog[58].dispatcher probeQueries 0
scalar FogNoLB.fog[58].dispatcher probeAnswers 0
scalar FogNoLB.fog[58].dispatcher droppedJobsSLA 0
scalar FogNoLB.fog[58].dispatcher jobs_class_1 3274
scalar FogNoLB.fog[58].dispatcher localJobs_class_1 3274
scalar FogNoLB.fog[58].server[0] rho 0.490248888731
scalar FogNoLB.fog[58].server[0] congestionRatio 0
scalar FogNoLB.fog[58].server[0] totalJobs 3274
scalar FogNoLB.fog[58].server[0] droppedJobsQueue 104
scalar FogNoLB.fog[58].server[0] droppedJobsTimout 0
scalar FogNoLB.fog[58].server[0] droppedJobsSLA 0
scalar FogNoLB.fog[58].server[0] droppedJobsTotal 104
scalar FogNoLB.fog[59].dispatcher localJobs 3174
scalar FogNoLB.fog[59].dispatcher remoteJobs 0
scalar FogNoLB.fog[59].dispatcher probeQueries 0
scalar FogNoLB.fog[59].dispatcher probeAnswers 0
scalar FogNoLB.fog[59].dispatcher droppedJobsSLA 0
scalar FogNoLB.fog[59].dispatcher jobs_class_1 3174
scalar FogNoLB.fog[59].dispatcher localJobs_class_1 3174
scalar FogNoLB.fog[59].server[0] rho 0.48204588890076
scalar FogNoLB.fog[59].server[0] congestionRatio 0
scalar FogNoLB.fog[59].server[0] totalJobs 3174
scalar FogNoLB.fog[59].server[0] droppedJobsQueue 60
scalar FogNoLB.fog[59].server[0] droppedJobsTimout 0
scalar FogNoLB.fog[59].server[0] droppedJobsSLA 0
scalar FogNoLB.fog[59].server[0] droppedJobsTotal 60
scalar FogNoLB.fog[60].dispatcher localJobs 3134
scalar FogNoLB.fog[60].dispatcher remoteJobs 0
scalar FogNoLB.fog[60].dispatcher probeQueries 0
scalar FogNoLB.fog[60].dispatcher probeAnswers 0
scalar FogNoLB.fog[60].dispatcher droppedJobsSLA 0
scalar FogNoLB.fog[60].dispatcher jobs_class_1 3134
scalar FogNoLB.fog[60].dispatcher localJobs_class_1 3134
scalar FogNoLB.fog[60].server[0] rho 0.47286492586136
scalar FogNoLB.fog[60].server[0] congestionRatio 0
scalar FogNoLB.fog[60].server[0] totalJobs 3134
scalar FogNoLB.fog[60].server[0] droppedJobsQueue 77
scalar FogNoLB.fog[60].server[0] droppedJobsTimout 0
scalar FogNoLB.fog[60].server[0] droppedJobsSLA 0
scalar FogNoLB.fog[60].server[0] droppedJobsTotal 77
scalar FogNoLB.fog[61].dispatcher localJobs 3262
scalar FogNoLB.fog[61].dispatcher remoteJobs 0
scalar FogNoLB.fog[61].dispatcher probeQueries 0
scalar FogNoLB.fog[61].dispatcher probeAnswers 0
scalar FogNoLB.fog[61].dispatcher droppedJobsSLA 0
scalar FogNoLB.fog[61].dispatcher jobs_class_1 3262
scalar FogNoLB.fog[61].dispatcher localJobs_class_1 3262
scalar FogNoLB.fog[61].server[0] rho 0.48951500654221
scalar FogNoLB.fog[61].server[0] congestionRatio 0
scalar FogNoLB.fog[61].server[0] totalJobs 3262
scalar FogNoLB.fog[61].server[0] droppedJobsQueue 97
scalar FogNoLB.fog[61].server[0] droppedJobsTimout 0
scalar FogNoLB.fog[61].server[0] droppedJobsSLA 0
scalar FogNoLB.fog[61].server[0] droppedJobsTotal 97
scalar FogNoLB.fog[62].dispatcher localJobs 3207
scalar FogNoLB.fog[62].dispatcher remoteJobs 0
scalar FogNoLB.fog[62].dispatcher probeQueries 0
scalar FogNoLB.fog[62].dispatcher probeAnswers 0
scalar FogNoLB.fog[62].dispatcher droppedJobsSLA 0
scalar FogNoLB.fog[62].dispatcher jobs_class_1 3207
scalar FogNoLB.fog[62].dispatcher localJobs_class_1 3207
scalar FogNoLB.fog[62].server[0] rho 0.48313134908676
scalar FogNoLB.fog[62].server[0] congestionRatio 0
scalar FogNoLB.fog[62].server[0] totalJobs 3207
scalar FogNoLB.fog[62].server[0] droppedJobsQueue 84
scalar FogNoLB.fog[62].server[0] droppedJobsTimout 0
scalar FogNoLB.fog[62].server[0] droppedJobsSLA 0
scalar FogNoLB.fog[62].server[0] droppedJobsTotal 84
scalar FogNoLB.fog[63].dispatcher localJobs 3193
scalar FogNoLB.fog[63].dispatcher remoteJobs 0
scalar FogNoLB.fog[63].dispatcher probeQueries 0
scalar FogNoLB.fog[63].dispatcher probeAnswers 0
scalar FogNoLB.fog[63].dispatcher droppedJobsSLA 0
scalar FogNoLB.fog[63].dispatcher jobs_class_1 3193
scalar FogNoLB.fog[63].dispatcher localJobs_class_1 3193
scalar FogNoLB.fog[63].server[0] rho 0.47919708490372
scalar FogNoLB.fog[63].server[0] congestionRatio 0
scalar FogNoLB.fog[63].server[0] totalJobs 3193
scalar FogNoLB.fog[63].server[0] droppedJobsQueue 91
scalar FogNoLB.fog[63].server[0] droppedJobsTimout 0
scalar FogNoLB.fog[63].server[0] droppedJobsSLA 0
scalar FogNoLB.fog[63].server[0] droppedJobsTotal 91
scalar FogNoLB.fog[64].dispatcher localJobs 3189
scalar FogNoLB.fog[64].dispatcher remoteJobs 0
scalar FogNoLB.fog[64].dispatcher probeQueries 0
scalar FogNoLB.fog[64].dispatcher probeAnswers 0
scalar FogNoLB.fog[64].dispatcher droppedJobsSLA 0
scalar FogNoLB.fog[64].dispatcher jobs_class_1 3189
scalar FogNoLB.fog[64].dispatcher localJobs_class_1 3189
scalar FogNoLB.fog[64].server[0] rho 0.47948449850082
scalar FogNoLB.fog[64].server[0] congestionRatio 0
scalar FogNoLB.fog[64].server[0] totalJobs 3189
scalar FogNoLB.fog[64].server[0] droppedJobsQueue 89
scalar FogNoLB.fog[64].server[0] droppedJobsTimout 0
scalar FogNoLB.fog[64].server[0] droppedJobsSLA 0
scalar FogNoLB.fog[64].server[0] droppedJobsTotal 89
scalar FogNoLB.fog[65].dispatcher localJobs 3198
scalar FogNoLB.fog[65].dispatcher remoteJobs 0
scalar FogNoLB.fog[65].dispatcher probeQueries 0
scalar FogNoLB.fog[65].dispatcher probeAnswers 0
scalar FogNoLB.fog[65].dispatcher droppedJobsSLA 0
scalar FogNoLB.fog[65].dispatcher jobs_class_1 3198
scalar FogNoLB.fog[65].dispatcher localJobs_class_1 3198
scalar FogNoLB.fog[65].server[0] rho 0.48466616868973
scalar FogNoLB.fog[65].server[0] congestionRatio 0
scalar FogNoLB.fog[65].server[0] totalJobs 3198
scalar FogNoLB.fog[65].server[0] droppedJobsQueue 61
scalar FogNoLB.fog[65].server[0] droppedJobsTimout 0
scalar FogNoLB.fog[65].server[0] droppedJobsSLA 0
scalar FogNoLB.fog[65].server[0] droppedJobsTotal 61
scalar FogNoLB.fog[66].dispatcher localJobs 3234
scalar FogNoLB.fog[66].dispatcher remoteJobs 0
scalar FogNoLB.fog[66].dispatcher probeQueries 0
scalar FogNoLB.fog[66].dispatcher probeAnswers 0
scalar FogNoLB.fog[66].dispatcher droppedJobsSLA 0
scalar FogNoLB.fog[66].dispatcher jobs_class_1 3234
scalar FogNoLB.fog[66].dispatcher localJobs_class_1 3234
scalar FogNoLB.fog[66].server[0] rho 0.4868323802948
scalar FogNoLB.fog[66].server[0] congestionRatio 0
scalar FogNoLB.fog[66].server[0] totalJobs 3234
scalar FogNoLB.fog[66].server[0] droppedJobsQueue 86
scalar FogNoLB.fog[66].server[0] droppedJobsTimout 0
scalar FogNoLB.fog[66].server[0] droppedJobsSLA 0
scalar FogNoLB.fog[66].server[0] droppedJobsTotal 86
scalar FogNoLB.fog[67].dispatcher localJobs 3201
scalar FogNoLB.fog[67].dispatcher remoteJobs 0
scalar FogNoLB.fog[67].dispatcher probeQueries 0
scalar FogNoLB.fog[67].dispatcher probeAnswers 0
scalar FogNoLB.fog[67].dispatcher droppedJobsSLA 0
scalar FogNoLB.fog[67].dispatcher jobs_class_1 3201
scalar FogNoLB.fog[67].dispatcher localJobs_class_1 3201
scalar FogNoLB.fog[67].server[0] rho 0.482630610466
scalar FogNoLB.fog[67].server[0] congestionRatio 0
scalar FogNoLB.fog[67].server[0] totalJobs 3201
scalar FogNoLB.fog[67].server[0] droppedJobsQueue 79
scalar FogNoLB.fog[67].server[0] droppedJobsTimout 0
scalar FogNoLB.fog[67].server[0] droppedJobsSLA 0
scalar FogNoLB.fog[67].server[0] droppedJobsTotal 79
scalar FogNoLB.fog[68].dispatcher localJobs 3245
scalar FogNoLB.fog[68].dispatcher remoteJobs 0
scalar FogNoLB.fog[68].dispatcher probeQueries 0
scalar FogNoLB.fog[68].dispatcher probeAnswers 0
scalar FogNoLB.fog[68].dispatcher droppedJobsSLA 0
scalar FogNoLB.fog[68].dispatcher jobs_class_1 3245
scalar FogNoLB.fog[68].dispatcher localJobs_class_1 3245
scalar FogNoLB.fog[68].server[0] rho 0.4904297888279
scalar FogNoLB.fog[68].server[0] congestionRatio 0
scalar FogNoLB.fog[68].server[0] totalJobs 3245
scalar FogNoLB.fog[68].server[0] droppedJobsQueue 74
scalar FogNoLB.fog[68].server[0] droppedJobsTimout 0
scalar FogNoLB.fog[68].server[0] droppedJobsSLA 0
scalar FogNoLB.fog[68].server[0] droppedJobsTotal 74
scalar FogNoLB.fog[69].dispatcher localJobs 3265
scalar FogNoLB.fog[69].dispatcher remoteJobs 0
scalar FogNoLB.fog[69].dispatcher probeQueries 0
scalar FogNoLB.fog[69].dispatcher probeAnswers 0
scalar FogNoLB.fog[69].dispatcher droppedJobsSLA 0
scalar FogNoLB.fog[69].dispatcher jobs_class_1 3265
scalar FogNoLB.fog[69].dispatcher localJobs_class_1 3265
scalar FogNoLB.fog[69].server[0] rho 0.49204769730568
scalar FogNoLB.fog[69].server[0] congestionRatio 0
scalar FogNoLB.fog[69].server[0] totalJobs 3265
scalar FogNoLB.fog[69].server[0] droppedJobsQueue 84
scalar FogNoLB.fog[69].server[0] droppedJobsTimout 0
scalar FogNoLB.fog[69].server[0] droppedJobsSLA 0
scalar FogNoLB.fog[69].server[0] droppedJobsTotal 84
scalar FogNoLB.fog[70].dispatcher localJobs 3201
scalar FogNoLB.fog[70].dispatcher remoteJobs 0
scalar FogNoLB.fog[70].dispatcher probeQueries 0
scalar FogNoLB.fog[70].dispatcher probeAnswers 0
scalar FogNoLB.fog[70].dispatcher droppedJobsSLA 0
scalar FogNoLB.fog[70].dispatcher jobs_class_1 3201
scalar FogNoLB.fog[70].dispatcher localJobs_class_1 3201
scalar FogNoLB.fog[70].server[0] rho 0.48154619336128
scalar FogNoLB.fog[70].server[0] congestionRatio 0
scalar FogNoLB.fog[70].server[0] totalJobs 3201
scalar FogNoLB.fog[70].server[0] droppedJobsQueue 86
scalar FogNoLB.fog[70].server[0] droppedJobsTimout 0
scalar FogNoLB.fog[70].server[0] droppedJobsSLA 0
scalar FogNoLB.fog[70].server[0] droppedJobsTotal 86
scalar FogNoLB.fog[71].dispatcher localJobs 3227
scalar FogNoLB.fog[71].dispatcher remoteJobs 0
scalar FogNoLB.fog[71].dispatcher probeQueries 0
scalar FogNoLB.fog[71].dispatcher probeAnswers 0
scalar FogNoLB.fog[71].dispatcher droppedJobsSLA 0
scalar FogNoLB.fog[71].dispatcher jobs_class_1 3227
scalar FogNoLB.fog[71].dispatcher localJobs_class_1 3227
scalar FogNoLB.fog[71].server[0] rho 0.48853304982185
scalar FogNoLB.fog[71].server[0] congestionRatio 0
scalar FogNoLB.fog[71].server[0] totalJobs 3227
scalar FogNoLB.fog[71].server[0] droppedJobsQueue 66
scalar FogNoLB.fog[71].server[0] droppedJobsTimout 0
scalar FogNoLB.fog[71].server[0] droppedJobsSLA 0
scalar FogNoLB.fog[71].server[0] droppedJobsTotal 66
scalar FogNoLB.fog[72].dispatcher localJobs 3217
scalar FogNoLB.fog[72].dispatcher remoteJobs 0
scalar FogNoLB.fog[72].dispatcher probeQueries 0
scalar FogNoLB.fog[72].dispatcher probeAnswers 0
scalar FogNoLB.fog[72].dispatcher droppedJobsSLA 0
scalar FogNoLB.fog[72].dispatcher jobs_class_1 3217
scalar FogNoLB.fog[72].dispatcher localJobs_class_1 3217
scalar FogNoLB.fog[72].server[0] rho 0.48500719666481
scalar FogNoLB.fog[72].server[0] congestionRatio 0
scalar FogNoLB.fog[72].server[0] totalJobs 3217
scalar FogNoLB.fog[72].server[0] droppedJobsQueue 82
scalar FogNoLB.fog[72].server[0] droppedJobsTimout 0
scalar FogNoLB.fog[72].server[0] droppedJobsSLA 0
scalar FogNoLB.fog[72].server[0] droppedJobsTotal 82
scalar FogNoLB.fog[73].dispatcher localJobs 3311
scalar FogNoLB.fog[73].dispatcher remoteJobs 0
scalar FogNoLB.fog[73].dispatcher probeQueries 0
scalar FogNoLB.fog[73].dispatcher probeAnswers 0
scalar FogNoLB.fog[73].dispatcher droppedJobsSLA 0
scalar FogNoLB.fog[73].dispatcher jobs_class_1 3311
scalar FogNoLB.fog[73].dispatcher localJobs_class_1 3311
scalar FogNoLB.fog[73].server[0] rho 0.49514999985695
scalar FogNoLB.fog[73].server[0] congestionRatio 0
scalar FogNoLB.fog[73].server[0] totalJobs 3311
scalar FogNoLB.fog[73].server[0] droppedJobsQueue 107
scalar FogNoLB.fog[73].server[0] droppedJobsTimout 0
scalar FogNoLB.fog[73].server[0] droppedJobsSLA 0
scalar FogNoLB.fog[73].server[0] droppedJobsTotal 107
scalar FogNoLB.fog[74].dispatcher localJobs 3166
scalar FogNoLB.fog[74].dispatcher remoteJobs 0
scalar FogNoLB.fog[74].dispatcher probeQueries 0
scalar FogNoLB.fog[74].dispatcher probeAnswers 0
scalar FogNoLB.fog[74].dispatcher droppedJobsSLA 0
scalar FogNoLB.fog[74].dispatcher jobs_class_1 3166
scalar FogNoLB.fog[74].dispatcher localJobs_class_1 3166
scalar FogNoLB.fog[74].server[0] rho 0.47726240754128
scalar FogNoLB.fog[74].server[0] congestionRatio 0
scalar FogNoLB.fog[74].server[0] totalJobs 3166
scalar FogNoLB.fog[74].server[0] droppedJobsQueue 80
scalar FogNoLB.fog[74].server[0] droppedJobsTimout 0
scalar FogNoLB.fog[74].server[0] droppedJobsSLA 0
scalar FogNoLB.fog[74].server[0] droppedJobsTotal 80
scalar FogNoLB.fog[75].dispatcher localJobs 3199
scalar FogNoLB.fog[75].dispatcher remoteJobs 0
scalar FogNoLB.fog[75].dispatcher probeQueries 0
scalar FogNoLB.fog[75].dispatcher probeAnswers 0
scalar FogNoLB.fog[75].dispatcher droppedJobsSLA 0
scalar FogNoLB.fog[75].dispatcher jobs_class_1 3199
scalar FogNoLB.fog[75].dispatcher localJobs_class_1 3199
scalar FogNoLB.fog[75].server[0] rho 0.47905659675598
scalar FogNoLB.fog[75].server[0] congestionRatio 0
scalar FogNoLB.fog[75].server[0] totalJobs 3199
scalar FogNoLB.fog[75].server[0] droppedJobsQueue 100
scalar FogNoLB.fog[75].server[0] droppedJobsTimout 0
scalar FogNoLB.fog[75].server[0] droppedJobsSLA 0
scalar FogNoLB.fog[75].server[0] droppedJobsTotal 100
scalar FogNoLB.fog[76].dispatcher localJobs 3260
scalar FogNoLB.fog[76].dispatcher remoteJobs 0
scalar FogNoLB.fog[76].dispatcher probeQueries 0
scalar FogNoLB.fog[76].dispatcher probeAnswers 0
scalar FogNoLB.fog[76].dispatcher droppedJobsSLA 0
scalar FogNoLB.fog[76].dispatcher jobs_class_1 3260
scalar FogNoLB.fog[76].dispatcher localJobs_class_1 3260
scalar FogNoLB.fog[76].server[0] rho 0.49005940556526
scalar FogNoLB.fog[76].server[0] congestionRatio 0
scalar FogNoLB.fog[76].server[0] totalJobs 3260
scalar FogNoLB.fog[76].server[0] droppedJobsQueue 88
scalar FogNoLB.fog[76].server[0] droppedJobsTimout 0
scalar FogNoLB.fog[76].server[0] droppedJobsSLA 0
scalar FogNoLB.fog[76].server[0] droppedJobsTotal 88
scalar FogNoLB.fog[77].dispatcher localJobs 3196
scalar FogNoLB.fog[77].dispatcher remoteJobs 0
scalar FogNoLB.fog[77].dispatcher probeQueries 0
scalar FogNoLB.fog[77].dispatcher probeAnswers 0
scalar FogNoLB.fog[77].dispatcher droppedJobsSLA 0
scalar FogNoLB.fog[77].dispatcher jobs_class_1 3196
scalar FogNoLB.fog[77].dispatcher localJobs_class_1 3196
scalar FogNoLB.fog[77].server[0] rho 0.47975385189056
scalar FogNoLB.fog[77].server[0] congestionRatio 0
scalar FogNoLB.fog[77].server[0] totalJobs 3196
scalar FogNoLB.fog[77].server[0] droppedJobsQueue 91
scalar FogNoLB.fog[77].server[0] droppedJobsTimout 0
scalar FogNoLB.fog[77].server[0] droppedJobsSLA 0
scalar FogNoLB.fog[77].server[0] droppedJobsTotal 91
scalar FogNoLB.fog[78].dispatcher localJobs 3281
scalar FogNoLB.fog[78].dispatcher remoteJobs 0
scalar FogNoLB.fog[78].dispatcher probeQueries 0
scalar FogNoLB.fog[78].dispatcher probeAnswers 0
scalar FogNoLB.fog[78].dispatcher droppedJobsSLA 0
scalar FogNoLB.fog[78].dispatcher jobs_class_1 3281
scalar FogNoLB.fog[78].dispatcher localJobs_class_1 3281
scalar FogNoLB.fog[78].server[0] rho 0.49384054541588
scalar FogNoLB.fog[78].server[0] congestionRatio 0
scalar FogNoLB.fog[78].server[0] totalJobs 3281
scalar FogNoLB.fog[78].server[0] droppedJobsQueue 87
scalar FogNoLB.fog[78].server[0] droppedJobsTimout 0
scalar FogNoLB.fog[78].server[0] droppedJobsSLA 0
scalar FogNoLB.fog[78].server[0] droppedJobsTotal 87
scalar FogNoLB.fog[79].dispatcher localJobs 3321
scalar FogNoLB.fog[79].dispatcher remoteJobs 0
scalar FogNoLB.fog[79].dispatcher probeQueries 0
scalar FogNoLB.fog[79].dispatcher probeAnswers 0
scalar FogNoLB.fog[79].dispatcher droppedJobsSLA 0
scalar FogNoLB.fog[79].dispatcher jobs_class_1 3321
scalar FogNoLB.fog[79].dispatcher localJobs_class_1 3321
scalar FogNoLB.fog[79].server[0] rho 0.49926778674126
scalar FogNoLB.fog[79].server[0] congestionRatio 0
scalar FogNoLB.fog[79].server[0] totalJobs 3321
scalar FogNoLB.fog[79].server[0] droppedJobsQueue 91
scalar FogNoLB.fog[79].server[0] droppedJobsTimout 0
scalar FogNoLB.fog[79].server[0] droppedJobsSLA 0
scalar FogNoLB.fog[79].server[0] droppedJobsTotal 91
scalar FogNoLB.fog[80].dispatcher localJobs 3247
scalar FogNoLB.fog[80].dispatcher remoteJobs 0
scalar FogNoLB.fog[80].dispatcher probeQueries 0
scalar FogNoLB.fog[80].dispatcher probeAnswers 0
scalar FogNoLB.fog[80].dispatcher droppedJobsSLA 0
scalar FogNoLB.fog[80].dispatcher jobs_class_1 3247
scalar FogNoLB.fog[80].dispatcher localJobs_class_1 3247
scalar FogNoLB.fog[80].server[0] rho 0.48604136705399
scalar FogNoLB.fog[80].server[0] congestionRatio 0
scalar FogNoLB.fog[80].server[0] totalJobs 3247
scalar FogNoLB.fog[80].server[0] droppedJobsQueue 104
scalar FogNoLB.fog[80].server[0] droppedJobsTimout 0
scalar FogNoLB.fog[80].server[0] droppedJobsSLA 0
scalar FogNoLB.fog[80].server[0] droppedJobsTotal 104
scalar FogNoLB.fog[81].dispatcher localJobs 3177
scalar FogNoLB.fog[81].dispatcher remoteJobs 0
scalar FogNoLB.fog[81].dispatcher probeQueries 0
scalar FogNoLB.fog[81].dispatcher probeAnswers 0
scalar FogNoLB.fog[81].dispatcher droppedJobsSLA 0
scalar FogNoLB.fog[81].dispatcher jobs_class_1 3177
scalar FogNoLB.fog[81].dispatcher localJobs_class_1 3177
scalar FogNoLB.fog[81].server[0] rho 0.47813817858696
scalar FogNoLB.fog[81].server[0] congestionRatio 0
scalar FogNoLB.fog[81].server[0] totalJobs 3177
scalar FogNoLB.fog[81].server[0] droppedJobsQueue 84
scalar FogNoLB.fog[81].server[0] droppedJobsTimout 0
scalar FogNoLB.fog[81].server[0] droppedJobsSLA 0
scalar FogNoLB.fog[81].server[0] droppedJobsTotal 84
scalar FogNoLB.fog[82].dispatcher localJobs 3209
scalar FogNoLB.fog[82].dispatcher remoteJobs 0
scalar FogNoLB.fog[82].dispatcher probeQueries 0
scalar FogNoLB.fog[82].dispatcher probeAnswers 0
scalar FogNoLB.fog[82].dispatcher droppedJobsSLA 0
scalar FogNoLB.fog[82].dispatcher jobs_class_1 3209
scalar FogNoLB.fog[82].dispatcher localJobs_class_1 3209
scalar FogNoLB.fog[82].server[0] rho 0.4826348721981
scalar FogNoLB.fog[82].server[0] congestionRatio 0
scalar FogNoLB.fog[82].server[0] totalJobs 3209
scalar FogNoLB.fog[82].server[0] droppedJobsQueue 88
scalar FogNoLB.fog[82].server[0] droppedJobsTimout 0
scalar FogNoLB.fog[82].server[0] droppedJobsSLA 0
scalar FogNoLB.fog[82].server[0] droppedJobsTotal 88
scalar FogNoLB.fog[83].dispatcher localJobs 3279
scalar FogNoLB.fog[83].dispatcher remoteJobs 0
scalar FogNoLB.fog[83].dispatcher probeQueries 0
scalar FogNoLB.fog[83].dispatcher probeAnswers 0
scalar FogNoLB.fog[83].dispatcher droppedJobsSLA 0
scalar FogNoLB.fog[83].dispatcher jobs_class_1 3279
scalar FogNoLB.fog[83].dispatcher localJobs_class_1 3279
scalar FogNoLB.fog[83].server[0] rho 0.49435651302338
scalar FogNoLB.fog[83].server[0] congestionRatio 0
scalar FogNoLB.fog[83].server[0] totalJobs 3279
scalar FogNoLB.fog[83].server[0] droppedJobsQueue 82
scalar FogNoLB.fog[83].server[0] droppedJobsTimout 0
scalar FogNoLB.fog[83].server[0] droppedJobsSLA 0
scalar FogNoLB.fog[83].server[0] droppedJobsTotal 82
scalar FogNoLB.fog[84].dispatcher localJobs 3271
scalar FogNoLB.fog[84].dispatcher remoteJobs 0
scalar FogNoLB.fog[84].dispatcher probeQueries 0
scalar FogNoLB.fog[84].dispatcher probeAnswers 0
scalar FogNoLB.fog[84].dispatcher droppedJobsSLA 0
scalar FogNoLB.fog[84].dispatcher jobs_class_1 3271
scalar FogNoLB.fog[84].dispatcher localJobs_class_1 3271
scalar FogNoLB.fog[84].server[0] rho 0.49099203944206
scalar FogNoLB.fog[84].server[0] congestionRatio 0
scalar FogNoLB.fog[84].server[0] totalJobs 3271
scalar FogNoLB.fog[84].server[0] droppedJobsQueue 95
scalar FogNoLB.fog[84].server[0] droppedJobsTimout 0
scalar FogNoLB.fog[84].server[0] droppedJobsSLA 0
scalar FogNoLB.fog[84].server[0] droppedJobsTotal 95
scalar FogNoLB.fog[85].dispatcher localJobs 3166
scalar FogNoLB.fog[85].dispatcher remoteJobs 0
scalar FogNoLB.fog[85].dispatcher probeQueries 0
scalar FogNoLB.fog[85].dispatcher probeAnswers 0
scalar FogNoLB.fog[85].dispatcher droppedJobsSLA 0
scalar FogNoLB.fog[85].dispatcher jobs_class_1 3166
scalar FogNoLB.fog[85].dispatcher localJobs_class_1 3166
scalar FogNoLB.fog[85].server[0] rho 0.47565722465515
scalar FogNoLB.fog[85].server[0] congestionRatio 0
scalar FogNoLB.fog[85].server[0] totalJobs 3166
scalar FogNoLB.fog[85].server[0] droppedJobsQueue 89
scalar FogNoLB.fog[85].server[0] droppedJobsTimout 0
scalar FogNoLB.fog[85].server[0] droppedJobsSLA 0
scalar FogNoLB.fog[85].server[0] droppedJobsTotal 89
scalar FogNoLB.fog[86].dispatcher localJobs 3273
scalar FogNoLB.fog[86].dispatcher remoteJobs 0
scalar FogNoLB.fog[86].dispatcher probeQueries 0
scalar FogNoLB.fog[86].dispatcher probeAnswers 0
scalar FogNoLB.fog[86].dispatcher droppedJobsSLA 0
scalar FogNoLB.fog[86].dispatcher jobs_class_1 3273
scalar FogNoLB.fog[86].dispatcher localJobs_class_1 3273
scalar FogNoLB.fog[86].server[0] rho 0.49070128798485
scalar FogNoLB.fog[86].server[0] congestionRatio 0
scalar FogNoLB.fog[86].server[0] totalJobs 3273
scalar FogNoLB.fog[86].server[0] droppedJobsQueue 98
scalar FogNoLB.fog[86].server[0] droppedJobsTimout 0
scalar FogNoLB.fog[86].server[0] droppedJobsSLA 0
scalar FogNoLB.fog[86].server[0] droppedJobsTotal 98
scalar FogNoLB.fog[87].dispatcher localJobs 3302
scalar FogNoLB.fog[87].dispatcher remoteJobs 0
scalar FogNoLB.fog[87].dispatcher probeQueries 0
scalar FogNoLB.fog[87].dispatcher probeAnswers 0
scalar FogNoLB.fog[87].dispatcher droppedJobsSLA 0
scalar FogNoLB.fog[87].dispatcher jobs_class_1 3302
scalar FogNoLB.fog[87].dispatcher localJobs_class_1 3302
scalar FogNoLB.fog[87].server[0] rho 0.49635431170464
scalar FogNoLB.fog[87].server[0] congestionRatio 0
scalar FogNoLB.fog[87].server[0] totalJobs 3302
scalar FogNoLB.fog[87].server[0] droppedJobsQueue 93
scalar FogNoLB.fog[87].server[0] droppedJobsTimout 0
scalar FogNoLB.fog[87].server[0] droppedJobsSLA 0
scalar FogNoLB.fog[87].server[0] droppedJobsTotal 93
scalar FogNoLB.fog[88].dispatcher localJobs 3232
scalar FogNoLB.fog[88].dispatcher remoteJobs 0
scalar FogNoLB.fog[88].dispatcher probeQueries 0
scalar FogNoLB.fog[88].dispatcher probeAnswers 0
scalar FogNoLB.fog[88].dispatcher droppedJobsSLA 0
scalar FogNoLB.fog[88].dispatcher jobs_class_1 3232
scalar FogNoLB.fog[88].dispatcher localJobs_class_1 3232
scalar FogNoLB.fog[88].server[0] rho 0.48608049750328
scalar FogNoLB.fog[88].server[0] congestionRatio 0
scalar FogNoLB.fog[88].server[0] totalJobs 3232
scalar FogNoLB.fog[88].server[0] droppedJobsQueue 88
scalar FogNoLB.fog[88].server[0] droppedJobsTimout 0
scalar FogNoLB.fog[88].server[0] droppedJobsSLA 0
scalar FogNoLB.fog[88].server[0] droppedJobsTotal 88
scalar FogNoLB.fog[89].dispatcher localJobs 3310
scalar FogNoLB.fog[89].dispatcher remoteJobs 0
scalar FogNoLB.fog[89].dispatcher probeQueries 0
scalar FogNoLB.fog[89].dispatcher probeAnswers 0
scalar FogNoLB.fog[89].dispatcher droppedJobsSLA 0
scalar FogNoLB.fog[89].dispatcher jobs_class_1 3310
scalar FogNoLB.fog[89].dispatcher localJobs_class_1 3310
scalar FogNoLB.fog[89].server[0] rho 0.49757620692253
scalar FogNoLB.fog[89].server[0] congestionRatio 0
scalar FogNoLB.fog[89].server[0] totalJobs 3310
scalar FogNoLB.fog[89].server[0] droppedJobsQueue 92
scalar FogNoLB.fog[89].server[0] droppedJobsTimout 0
scalar FogNoLB.fog[89].server[0] droppedJobsSLA 0
scalar FogNoLB.fog[89].server[0] droppedJobsTotal 92
scalar FogNoLB.fog[90].dispatcher localJobs 3188
scalar FogNoLB.fog[90].dispatcher remoteJobs 0
scalar FogNoLB.fog[90].dispatcher probeQueries 0
scalar FogNoLB.fog[90].dispatcher probeAnswers 0
scalar FogNoLB.fog[90].dispatcher droppedJobsSLA 0
scalar FogNoLB.fog[90].dispatcher jobs_class_1 3188
scalar FogNoLB.fog[90].dispatcher localJobs_class_1 3188
scalar FogNoLB.fog[90].server[0] rho 0.48152250051498
scalar FogNoLB.fog[90].server[0] congestionRatio 0
scalar FogNoLB.fog[90].server[0] totalJobs 3188
scalar FogNoLB.fog[90].server[0] droppedJobsQueue 77
scalar FogNoLB.fog[90].server[0] droppedJobsTimout 0
scalar FogNoLB.fog[90].server[0] droppedJobsSLA 0
scalar FogNoLB.fog[90].server[0] droppedJobsTotal 77
scalar FogNoLB.fog[91].dispatcher localJobs 3184
scalar FogNoLB.fog[91].dispatcher remoteJobs 0
scalar FogNoLB.fog[91].dispatcher probeQueries 0
scalar FogNoLB.fog[91].dispatcher probeAnswers 0
scalar FogNoLB.fog[91].dispatcher droppedJobsSLA 0
scalar FogNoLB.fog[91].dispatcher jobs_class_1 3184
scalar FogNoLB.fog[91].dispatcher localJobs_class_1 3184
scalar FogNoLB.fog[91].server[0] rho 0.48133906722069
scalar FogNoLB.fog[91].server[0] congestionRatio 0
scalar FogNoLB.fog[91].server[0] totalJobs 3184
scalar FogNoLB.fog[91].server[0] droppedJobsQueue 70
scalar FogNoLB.fog[91].server[0] droppedJobsTimout 0
scalar FogNoLB.fog[91].server[0] droppedJobsSLA 0
scalar FogNoLB.fog[91].server[0] droppedJobsTotal 70
scalar FogNoLB.fog[92].dispatcher localJobs 3244
scalar FogNoLB.fog[92].dispatcher remoteJobs 0
scalar FogNoLB.fog[92].dispatcher probeQueries 0
scalar FogNoLB.fog[92].dispatcher probeAnswers 0
scalar FogNoLB.fog[92].dispatcher droppedJobsSLA 0
scalar FogNoLB.fog[92].dispatcher jobs_class_1 3244
scalar FogNoLB.fog[92].dispatcher localJobs_class_1 3244
scalar FogNoLB.fog[92].server[0] rho 0.48968532681465
scalar FogNoLB.fog[92].server[0] congestionRatio 0
scalar FogNoLB.fog[92].server[0] totalJobs 3244
scalar FogNoLB.fog[92].server[0] droppedJobsQueue 75
scalar FogNoLB.fog[92].server[0] droppedJobsTimout 0
scalar FogNoLB.fog[92].server[0] droppedJobsSLA 0
scalar FogNoLB.fog[92].server[0] droppedJobsTotal 75
scalar FogNoLB.fog[93].dispatcher localJobs 3338
scalar FogNoLB.fog[93].dispatcher remoteJobs 0
scalar FogNoLB.fog[93].dispatcher probeQueries 0
scalar FogNoLB.fog[93].dispatcher probeAnswers 0
scalar FogNoLB.fog[93].dispatcher droppedJobsSLA 0
scalar FogNoLB.fog[93].dispatcher jobs_class_1 3338
scalar FogNoLB.fog[93].dispatcher localJobs_class_1 3338
scalar FogNoLB.fog[93].server[0] rho 0.49894607067108
scalar FogNoLB.fog[93].server[0] congestionRatio 0
scalar FogNoLB.fog[93].server[0] totalJobs 3338
scalar FogNoLB.fog[93].server[0] droppedJobsQueue 108
scalar FogNoLB.fog[93].server[0] droppedJobsTimout 0
scalar FogNoLB.fog[93].server[0] droppedJobsSLA 0
scalar FogNoLB.fog[93].server[0] droppedJobsTotal 108
scalar FogNoLB.fog[94].dispatcher localJobs 3371
scalar FogNoLB.fog[94].dispatcher remoteJobs 0
scalar FogNoLB.fog[94].dispatcher probeQueries 0
scalar FogNoLB.fog[94].dispatcher probeAnswers 0
scalar FogNoLB.fog[94].dispatcher droppedJobsSLA 0
scalar FogNoLB.fog[94].dispatcher jobs_class_1 3371
scalar FogNoLB.fog[94].dispatcher localJobs_class_1 3371
scalar FogNoLB.fog[94].server[0] rho 0.50509870052338
scalar FogNoLB.fog[94].server[0] congestionRatio 0
scalar FogNoLB.fog[94].server[0] totalJobs 3371
scalar FogNoLB.fog[94].server[0] droppedJobsQueue 103
scalar FogNoLB.fog[94].server[0] droppedJobsTimout 0
scalar FogNoLB.fog[94].server[0] droppedJobsSLA 0
scalar FogNoLB.fog[94].server[0] droppedJobsTotal 103
scalar FogNoLB.fog[95].dispatcher localJobs 3184
scalar FogNoLB.fog[95].dispatcher remoteJobs 0
scalar FogNoLB.fog[95].dispatcher probeQueries 0
scalar FogNoLB.fog[95].dispatcher probeAnswers 0
scalar FogNoLB.fog[95].dispatcher droppedJobsSLA 0
scalar FogNoLB.fog[95].dispatcher jobs_class_1 3184
scalar FogNoLB.fog[95].dispatcher localJobs_class_1 3184
scalar FogNoLB.fog[95].server[0] rho 0.48070025444031
scalar FogNoLB.fog[95].server[0] congestionRatio 0
scalar FogNoLB.fog[95].server[0] totalJobs 3184
scalar FogNoLB.fog[95].server[0] droppedJobsQueue 70
scalar FogNoLB.fog[95].server[0] droppedJobsTimout 0
scalar FogNoLB.fog[95].server[0] droppedJobsSLA 0
scalar FogNoLB.fog[95].server[0] droppedJobsTotal 70
scalar FogNoLB.fog[96].dispatcher localJobs 3104
scalar FogNoLB.fog[96].dispatcher remoteJobs 0
scalar FogNoLB.fog[96].dispatcher probeQueries 0
scalar FogNoLB.fog[96].dispatcher probeAnswers 0
scalar FogNoLB.fog[96].dispatcher droppedJobsSLA 0
scalar FogNoLB.fog[96].dispatcher jobs_class_1 3104
scalar FogNoLB.fog[96].dispatcher localJobs_class_1 3104
scalar FogNoLB.fog[96].server[0] rho 0.47003081440926
scalar FogNoLB.fog[96].server[0] congestionRatio 0
scalar FogNoLB.fog[96].server[0] totalJobs 3104
scalar FogNoLB.fog[96].server[0] droppedJobsQueue 65
scalar FogNoLB.fog[96].server[0] droppedJobsTimout 0
scalar FogNoLB.fog[96].server[0] droppedJobsSLA 0
scalar FogNoLB.fog[96].server[0] droppedJobsTotal 65
scalar FogNoLB.fog[97].dispatcher localJobs 3201
scalar FogNoLB.fog[97].dispatcher remoteJobs 0
scalar FogNoLB.fog[97].dispatcher probeQueries 0
scalar FogNoLB.fog[97].dispatcher probeAnswers 0
scalar FogNoLB.fog[97].dispatcher droppedJobsSLA 0
scalar FogNoLB.fog[97].dispatcher jobs_class_1 3201
scalar FogNoLB.fog[97].dispatcher localJobs_class_1 3201
scalar FogNoLB.fog[97].server[0] rho 0.47978216409683
scalar FogNoLB.fog[97].server[0] congestionRatio 0
scalar FogNoLB.fog[97].server[0] totalJobs 3201
scalar FogNoLB.fog[97].server[0] droppedJobsQueue 100
scalar FogNoLB.fog[97].server[0] droppedJobsTimout 0
scalar FogNoLB.fog[97].server[0] droppedJobsSLA 0
scalar FogNoLB.fog[97].server[0] droppedJobsTotal 100
scalar FogNoLB.fog[98].dispatcher localJobs 3217
scalar FogNoLB.fog[98].dispatcher remoteJobs 0
scalar FogNoLB.fog[98].dispatcher probeQueries 0
scalar FogNoLB.fog[98].dispatcher probeAnswers 0
scalar FogNoLB.fog[98].dispatcher droppedJobsSLA 0
scalar FogNoLB.fog[98].dispatcher jobs_class_1 3217
scalar FogNoLB.fog[98].dispatcher localJobs_class_1 3217
scalar FogNoLB.fog[98].server[0] rho 0.48375645279884
scalar FogNoLB.fog[98].server[0] congestionRatio 0
scalar FogNoLB.fog[98].server[0] totalJobs 3217
scalar FogNoLB.fog[98].server[0] droppedJobsQueue 91
scalar FogNoLB.fog[98].server[0] droppedJobsTimout 0
scalar FogNoLB.fog[98].server[0] droppedJobsSLA 0
scalar FogNoLB.fog[98].server[0] droppedJobsTotal 91
scalar FogNoLB.fog[99].dispatcher localJobs 3200
scalar FogNoLB.fog[99].dispatcher remoteJobs 0
scalar FogNoLB.fog[99].dispatcher probeQueries 0
scalar FogNoLB.fog[99].dispatcher probeAnswers 0
scalar FogNoLB.fog[99].dispatcher droppedJobsSLA 0
scalar FogNoLB.fog[99].dispatcher jobs_class_1 3200
scalar FogNoLB.fog[99].dispatcher localJobs_class_1 3200
scalar FogNoLB.fog[99].server[0] rho 0.47854313254356
scalar FogNoLB.fog[99].server[0] congestionRatio 0
scalar FogNoLB.fog[99].server[0] totalJobs 3200
scalar FogNoLB.fog[99].server[0] droppedJobsQueue 104
scalar FogNoLB.fog[99].server[0] droppedJobsTimout 0
scalar FogNoLB.fog[99].server[0] droppedJobsSLA 0
scalar FogNoLB.fog[99].server[0] droppedJobsTotal 104
scalar FogNoLB.sink avg_responseTime_1 2.2877975458826
scalar FogNoLB.sink p90_responseTime_1 1.518685382945
scalar FogNoLB.sink med_responseTime_1 1.518685382945
scalar FogNoLB.sink avg_delayTime_1 0
scalar FogNoLB.sink p90_delayTime_1 0
scalar FogNoLB.sink med_delayTime_1 0
scalar FogNoLB.sink avg_queuingTime_1 0.61774943448765
scalar FogNoLB.sink p90_queuingTime_1 0
scalar FogNoLB.sink med_queuingTime_1 0
scalar FogNoLB.sink avg_serviceTime_1 1.670048111395
scalar FogNoLB.sink p90_serviceTime_1 1.500756621053
scalar FogNoLB.sink med_serviceTime_1 1.500756621053
scalar FogNoLB.sink avg_balancerTime_1 0
scalar FogNoLB.sink p90_balancerTime_1 0
scalar FogNoLB.sink med_balancerTime_1 0
scalar FogNoLB.sink avg_balancerCount_1 1
scalar FogNoLB.sink p90_balancerCount_1 1
scalar FogNoLB.sink med_balancerCount_1 1

