version 2
run Fog-mul_1-rho_09-thr_9-4-20190711-22:52:02-64171
attr configname Fog-mul_1-rho_09-thr_9
attr datetime 20190711-22:52:02
attr experiment Fog-mul_1-rho_09-thr_9
attr inifile FogQueueLen.ini
attr iterationvars ""
attr iterationvarsf ""
attr measurement ""
attr network FogNoLB
attr processid 64171
attr repetition 4
attr replication #4
attr resultdir results
attr runnumber 4
attr seedset 4
param FogNoLB.proctimeMul 1
param FogNoLB.rho 0.9
param FogNoLB.fog[*].server[*].capacity 9
param FogNoLB.nSources 100
param FogNoLB.rho 0.9
param FogNoLB.proctimeMul 1.0
param FogNoLB.source[*].appId 1
param FogNoLB.fog[*].nServers 1
param FogNoLB.fog[*].dispatcher.fanOut 1
param FogNoLB.fog[*].server[*].timeSlice -1s
param FogNoLB.fog[*].server[*].capacity 5
param FogNoLB.fog[*].server[*].fifo true
param FogNoLB.fog[*].server[*].maxServiceTime -1s

scalar FogNoLB.fog[0].dispatcher localJobs 5777
scalar FogNoLB.fog[0].dispatcher remoteJobs 0
scalar FogNoLB.fog[0].dispatcher probeQueries 0
scalar FogNoLB.fog[0].dispatcher probeAnswers 0
scalar FogNoLB.fog[0].dispatcher droppedJobsSLA 0
scalar FogNoLB.fog[0].dispatcher jobs_class_1 5777
scalar FogNoLB.fog[0].dispatcher localJobs_class_1 5777
scalar FogNoLB.fog[0].server[0] rho 0.87458002567291
scalar FogNoLB.fog[0].server[0] congestionRatio 0
scalar FogNoLB.fog[0].server[0] totalJobs 5777
scalar FogNoLB.fog[0].server[0] droppedJobsQueue 118
scalar FogNoLB.fog[0].server[0] droppedJobsTimout 9
scalar FogNoLB.fog[0].server[0] droppedJobsSLA 0
scalar FogNoLB.fog[0].server[0] droppedJobsTotal 127
scalar FogNoLB.fog[1].dispatcher localJobs 5859
scalar FogNoLB.fog[1].dispatcher remoteJobs 0
scalar FogNoLB.fog[1].dispatcher probeQueries 0
scalar FogNoLB.fog[1].dispatcher probeAnswers 0
scalar FogNoLB.fog[1].dispatcher droppedJobsSLA 0
scalar FogNoLB.fog[1].dispatcher jobs_class_1 5859
scalar FogNoLB.fog[1].dispatcher localJobs_class_1 5859
scalar FogNoLB.fog[1].server[0] rho 0.89156687259674
scalar FogNoLB.fog[1].server[0] congestionRatio 0
scalar FogNoLB.fog[1].server[0] totalJobs 5859
scalar FogNoLB.fog[1].server[0] droppedJobsQueue 92
scalar FogNoLB.fog[1].server[0] droppedJobsTimout 4
scalar FogNoLB.fog[1].server[0] droppedJobsSLA 0
scalar FogNoLB.fog[1].server[0] droppedJobsTotal 96
scalar FogNoLB.fog[2].dispatcher localJobs 5798
scalar FogNoLB.fog[2].dispatcher remoteJobs 0
scalar FogNoLB.fog[2].dispatcher probeQueries 0
scalar FogNoLB.fog[2].dispatcher probeAnswers 0
scalar FogNoLB.fog[2].dispatcher droppedJobsSLA 0
scalar FogNoLB.fog[2].dispatcher jobs_class_1 5798
scalar FogNoLB.fog[2].dispatcher localJobs_class_1 5798
scalar FogNoLB.fog[2].server[0] rho 0.88426578044891
scalar FogNoLB.fog[2].server[0] congestionRatio 0
scalar FogNoLB.fog[2].server[0] totalJobs 5798
scalar FogNoLB.fog[2].server[0] droppedJobsQueue 76
scalar FogNoLB.fog[2].server[0] droppedJobsTimout 3
scalar FogNoLB.fog[2].server[0] droppedJobsSLA 0
scalar FogNoLB.fog[2].server[0] droppedJobsTotal 79
scalar FogNoLB.fog[3].dispatcher localJobs 5669
scalar FogNoLB.fog[3].dispatcher remoteJobs 0
scalar FogNoLB.fog[3].dispatcher probeQueries 0
scalar FogNoLB.fog[3].dispatcher probeAnswers 0
scalar FogNoLB.fog[3].dispatcher droppedJobsSLA 0
scalar FogNoLB.fog[3].dispatcher jobs_class_1 5669
scalar FogNoLB.fog[3].dispatcher localJobs_class_1 5669
scalar FogNoLB.fog[3].server[0] rho 0.86783945560455
scalar FogNoLB.fog[3].server[0] congestionRatio 0
scalar FogNoLB.fog[3].server[0] totalJobs 5669
scalar FogNoLB.fog[3].server[0] droppedJobsQueue 57
scalar FogNoLB.fog[3].server[0] droppedJobsTimout 4
scalar FogNoLB.fog[3].server[0] droppedJobsSLA 0
scalar FogNoLB.fog[3].server[0] droppedJobsTotal 61
scalar FogNoLB.fog[4].dispatcher localJobs 5737
scalar FogNoLB.fog[4].dispatcher remoteJobs 0
scalar FogNoLB.fog[4].dispatcher probeQueries 0
scalar FogNoLB.fog[4].dispatcher probeAnswers 0
scalar FogNoLB.fog[4].dispatcher droppedJobsSLA 0
scalar FogNoLB.fog[4].dispatcher jobs_class_1 5737
scalar FogNoLB.fog[4].dispatcher localJobs_class_1 5737
scalar FogNoLB.fog[4].server[0] rho 0.87498342990875
scalar FogNoLB.fog[4].server[0] congestionRatio 0
scalar FogNoLB.fog[4].server[0] totalJobs 5737
scalar FogNoLB.fog[4].server[0] droppedJobsQueue 74
scalar FogNoLB.fog[4].server[0] droppedJobsTimout 7
scalar FogNoLB.fog[4].server[0] droppedJobsSLA 0
scalar FogNoLB.fog[4].server[0] droppedJobsTotal 81
scalar FogNoLB.fog[5].dispatcher localJobs 5806
scalar FogNoLB.fog[5].dispatcher remoteJobs 0
scalar FogNoLB.fog[5].dispatcher probeQueries 0
scalar FogNoLB.fog[5].dispatcher probeAnswers 0
scalar FogNoLB.fog[5].dispatcher droppedJobsSLA 0
scalar FogNoLB.fog[5].dispatcher jobs_class_1 5806
scalar FogNoLB.fog[5].dispatcher localJobs_class_1 5806
scalar FogNoLB.fog[5].server[0] rho 0.88503330945969
scalar FogNoLB.fog[5].server[0] congestionRatio 0
scalar FogNoLB.fog[5].server[0] totalJobs 5806
scalar FogNoLB.fog[5].server[0] droppedJobsQueue 74
scalar FogNoLB.fog[5].server[0] droppedJobsTimout 8
scalar FogNoLB.fog[5].server[0] droppedJobsSLA 0
scalar FogNoLB.fog[5].server[0] droppedJobsTotal 82
scalar FogNoLB.fog[6].dispatcher localJobs 5685
scalar FogNoLB.fog[6].dispatcher remoteJobs 0
scalar FogNoLB.fog[6].dispatcher probeQueries 0
scalar FogNoLB.fog[6].dispatcher probeAnswers 0
scalar FogNoLB.fog[6].dispatcher droppedJobsSLA 0
scalar FogNoLB.fog[6].dispatcher jobs_class_1 5685
scalar FogNoLB.fog[6].dispatcher localJobs_class_1 5685
scalar FogNoLB.fog[6].server[0] rho 0.86340373754501
scalar FogNoLB.fog[6].server[0] congestionRatio 0
scalar FogNoLB.fog[6].server[0] totalJobs 5685
scalar FogNoLB.fog[6].server[0] droppedJobsQueue 98
scalar FogNoLB.fog[6].server[0] droppedJobsTimout 0
scalar FogNoLB.fog[6].server[0] droppedJobsSLA 0
scalar FogNoLB.fog[6].server[0] droppedJobsTotal 98
scalar FogNoLB.fog[7].dispatcher localJobs 5673
scalar FogNoLB.fog[7].dispatcher remoteJobs 0
scalar FogNoLB.fog[7].dispatcher probeQueries 0
scalar FogNoLB.fog[7].dispatcher probeAnswers 0
scalar FogNoLB.fog[7].dispatcher droppedJobsSLA 0
scalar FogNoLB.fog[7].dispatcher jobs_class_1 5673
scalar FogNoLB.fog[7].dispatcher localJobs_class_1 5673
scalar FogNoLB.fog[7].server[0] rho 0.86644011735916
scalar FogNoLB.fog[7].server[0] congestionRatio 0
scalar FogNoLB.fog[7].server[0] totalJobs 5673
scalar FogNoLB.fog[7].server[0] droppedJobsQueue 60
scalar FogNoLB.fog[7].server[0] droppedJobsTimout 6
scalar FogNoLB.fog[7].server[0] droppedJobsSLA 0
scalar FogNoLB.fog[7].server[0] droppedJobsTotal 66
scalar FogNoLB.fog[8].dispatcher localJobs 5858
scalar FogNoLB.fog[8].dispatcher remoteJobs 0
scalar FogNoLB.fog[8].dispatcher probeQueries 0
scalar FogNoLB.fog[8].dispatcher probeAnswers 0
scalar FogNoLB.fog[8].dispatcher droppedJobsSLA 0
scalar FogNoLB.fog[8].dispatcher jobs_class_1 5858
scalar FogNoLB.fog[8].dispatcher localJobs_class_1 5858
scalar FogNoLB.fog[8].server[0] rho 0.88629901409149
scalar FogNoLB.fog[8].server[0] congestionRatio 0
scalar FogNoLB.fog[8].server[0] totalJobs 5858
scalar FogNoLB.fog[8].server[0] droppedJobsQueue 124
scalar FogNoLB.fog[8].server[0] droppedJobsTimout 11
scalar FogNoLB.fog[8].server[0] droppedJobsSLA 0
scalar FogNoLB.fog[8].server[0] droppedJobsTotal 135
scalar FogNoLB.fog[9].dispatcher localJobs 5788
scalar FogNoLB.fog[9].dispatcher remoteJobs 0
scalar FogNoLB.fog[9].dispatcher probeQueries 0
scalar FogNoLB.fog[9].dispatcher probeAnswers 0
scalar FogNoLB.fog[9].dispatcher droppedJobsSLA 0
scalar FogNoLB.fog[9].dispatcher jobs_class_1 5788
scalar FogNoLB.fog[9].dispatcher localJobs_class_1 5788
scalar FogNoLB.fog[9].server[0] rho 0.87561970949173
scalar FogNoLB.fog[9].server[0] congestionRatio 0
scalar FogNoLB.fog[9].server[0] totalJobs 5788
scalar FogNoLB.fog[9].server[0] droppedJobsQueue 127
scalar FogNoLB.fog[9].server[0] droppedJobsTimout 6
scalar FogNoLB.fog[9].server[0] droppedJobsSLA 0
scalar FogNoLB.fog[9].server[0] droppedJobsTotal 133
scalar FogNoLB.fog[10].dispatcher localJobs 5783
scalar FogNoLB.fog[10].dispatcher remoteJobs 0
scalar FogNoLB.fog[10].dispatcher probeQueries 0
scalar FogNoLB.fog[10].dispatcher probeAnswers 0
scalar FogNoLB.fog[10].dispatcher droppedJobsSLA 0
scalar FogNoLB.fog[10].dispatcher jobs_class_1 5783
scalar FogNoLB.fog[10].dispatcher localJobs_class_1 5783
scalar FogNoLB.fog[10].server[0] rho 0.87759727239609
scalar FogNoLB.fog[10].server[0] congestionRatio 0
scalar FogNoLB.fog[10].server[0] totalJobs 5783
scalar FogNoLB.fog[10].server[0] droppedJobsQueue 102
scalar FogNoLB.fog[10].server[0] droppedJobsTimout 2
scalar FogNoLB.fog[10].server[0] droppedJobsSLA 0
scalar FogNoLB.fog[10].server[0] droppedJobsTotal 104
scalar FogNoLB.fog[11].dispatcher localJobs 5906
scalar FogNoLB.fog[11].dispatcher remoteJobs 0
scalar FogNoLB.fog[11].dispatcher probeQueries 0
scalar FogNoLB.fog[11].dispatcher probeAnswers 0
scalar FogNoLB.fog[11].dispatcher droppedJobsSLA 0
scalar FogNoLB.fog[11].dispatcher jobs_class_1 5906
scalar FogNoLB.fog[11].dispatcher localJobs_class_1 5906
scalar FogNoLB.fog[11].server[0] rho 0.89733952283859
scalar FogNoLB.fog[11].server[0] congestionRatio 0
scalar FogNoLB.fog[11].server[0] totalJobs 5906
scalar FogNoLB.fog[11].server[0] droppedJobsQueue 100
scalar FogNoLB.fog[11].server[0] droppedJobsTimout 12
scalar FogNoLB.fog[11].server[0] droppedJobsSLA 0
scalar FogNoLB.fog[11].server[0] droppedJobsTotal 112
scalar FogNoLB.fog[12].dispatcher localJobs 5840
scalar FogNoLB.fog[12].dispatcher remoteJobs 0
scalar FogNoLB.fog[12].dispatcher probeQueries 0
scalar FogNoLB.fog[12].dispatcher probeAnswers 0
scalar FogNoLB.fog[12].dispatcher droppedJobsSLA 0
scalar FogNoLB.fog[12].dispatcher jobs_class_1 5840
scalar FogNoLB.fog[12].dispatcher localJobs_class_1 5840
scalar FogNoLB.fog[12].server[0] rho 0.88667505979538
scalar FogNoLB.fog[12].server[0] congestionRatio 0
scalar FogNoLB.fog[12].server[0] totalJobs 5840
scalar FogNoLB.fog[12].server[0] droppedJobsQueue 101
scalar FogNoLB.fog[12].server[0] droppedJobsTimout 4
scalar FogNoLB.fog[12].server[0] droppedJobsSLA 0
scalar FogNoLB.fog[12].server[0] droppedJobsTotal 105
scalar FogNoLB.fog[13].dispatcher localJobs 5738
scalar FogNoLB.fog[13].dispatcher remoteJobs 0
scalar FogNoLB.fog[13].dispatcher probeQueries 0
scalar FogNoLB.fog[13].dispatcher probeAnswers 0
scalar FogNoLB.fog[13].dispatcher droppedJobsSLA 0
scalar FogNoLB.fog[13].dispatcher jobs_class_1 5738
scalar FogNoLB.fog[13].dispatcher localJobs_class_1 5738
scalar FogNoLB.fog[13].server[0] rho 0.8755487203598
scalar FogNoLB.fog[13].server[0] congestionRatio 0
scalar FogNoLB.fog[13].server[0] totalJobs 5738
scalar FogNoLB.fog[13].server[0] droppedJobsQueue 77
scalar FogNoLB.fog[13].server[0] droppedJobsTimout 3
scalar FogNoLB.fog[13].server[0] droppedJobsSLA 0
scalar FogNoLB.fog[13].server[0] droppedJobsTotal 80
scalar FogNoLB.fog[14].dispatcher localJobs 5786
scalar FogNoLB.fog[14].dispatcher remoteJobs 0
scalar FogNoLB.fog[14].dispatcher probeQueries 0
scalar FogNoLB.fog[14].dispatcher probeAnswers 0
scalar FogNoLB.fog[14].dispatcher droppedJobsSLA 0
scalar FogNoLB.fog[14].dispatcher jobs_class_1 5786
scalar FogNoLB.fog[14].dispatcher localJobs_class_1 5786
scalar FogNoLB.fog[14].server[0] rho 0.88613212108612
scalar FogNoLB.fog[14].server[0] congestionRatio 0
scalar FogNoLB.fog[14].server[0] totalJobs 5786
scalar FogNoLB.fog[14].server[0] droppedJobsQueue 51
scalar FogNoLB.fog[14].server[0] droppedJobsTimout 5
scalar FogNoLB.fog[14].server[0] droppedJobsSLA 0
scalar FogNoLB.fog[14].server[0] droppedJobsTotal 56
scalar FogNoLB.fog[15].dispatcher localJobs 5836
scalar FogNoLB.fog[15].dispatcher remoteJobs 0
scalar FogNoLB.fog[15].dispatcher probeQueries 0
scalar FogNoLB.fog[15].dispatcher probeAnswers 0
scalar FogNoLB.fog[15].dispatcher droppedJobsSLA 0
scalar FogNoLB.fog[15].dispatcher jobs_class_1 5836
scalar FogNoLB.fog[15].dispatcher localJobs_class_1 5836
scalar FogNoLB.fog[15].server[0] rho 0.88877499103546
scalar FogNoLB.fog[15].server[0] congestionRatio 0
scalar FogNoLB.fog[15].server[0] totalJobs 5836
scalar FogNoLB.fog[15].server[0] droppedJobsQueue 88
scalar FogNoLB.fog[15].server[0] droppedJobsTimout 6
scalar FogNoLB.fog[15].server[0] droppedJobsSLA 0
scalar FogNoLB.fog[15].server[0] droppedJobsTotal 94
scalar FogNoLB.fog[16].dispatcher localJobs 5884
scalar FogNoLB.fog[16].dispatcher remoteJobs 0
scalar FogNoLB.fog[16].dispatcher probeQueries 0
scalar FogNoLB.fog[16].dispatcher probeAnswers 0
scalar FogNoLB.fog[16].dispatcher droppedJobsSLA 0
scalar FogNoLB.fog[16].dispatcher jobs_class_1 5884
scalar FogNoLB.fog[16].dispatcher localJobs_class_1 5884
scalar FogNoLB.fog[16].server[0] rho 0.88473260402679
scalar FogNoLB.fog[16].server[0] congestionRatio 0
scalar FogNoLB.fog[16].server[0] totalJobs 5884
scalar FogNoLB.fog[16].server[0] droppedJobsQueue 163
scalar FogNoLB.fog[16].server[0] droppedJobsTimout 12
scalar FogNoLB.fog[16].server[0] droppedJobsSLA 0
scalar FogNoLB.fog[16].server[0] droppedJobsTotal 175
scalar FogNoLB.fog[17].dispatcher localJobs 5848
scalar FogNoLB.fog[17].dispatcher remoteJobs 0
scalar FogNoLB.fog[17].dispatcher probeQueries 0
scalar FogNoLB.fog[17].dispatcher probeAnswers 0
scalar FogNoLB.fog[17].dispatcher droppedJobsSLA 0
scalar FogNoLB.fog[17].dispatcher jobs_class_1 5848
scalar FogNoLB.fog[17].dispatcher localJobs_class_1 5848
scalar FogNoLB.fog[17].server[0] rho 0.88910579681396
scalar FogNoLB.fog[17].server[0] congestionRatio 0
scalar FogNoLB.fog[17].server[0] totalJobs 5848
scalar FogNoLB.fog[17].server[0] droppedJobsQueue 97
scalar FogNoLB.fog[17].server[0] droppedJobsTimout 4
scalar FogNoLB.fog[17].server[0] droppedJobsSLA 0
scalar FogNoLB.fog[17].server[0] droppedJobsTotal 101
scalar FogNoLB.fog[18].dispatcher localJobs 5934
scalar FogNoLB.fog[18].dispatcher remoteJobs 0
scalar FogNoLB.fog[18].dispatcher probeQueries 0
scalar FogNoLB.fog[18].dispatcher probeAnswers 0
scalar FogNoLB.fog[18].dispatcher droppedJobsSLA 0
scalar FogNoLB.fog[18].dispatcher jobs_class_1 5934
scalar FogNoLB.fog[18].dispatcher localJobs_class_1 5934
scalar FogNoLB.fog[18].server[0] rho 0.89927786588669
scalar FogNoLB.fog[18].server[0] congestionRatio 0
scalar FogNoLB.fog[18].server[0] totalJobs 5934
scalar FogNoLB.fog[18].server[0] droppedJobsQueue 115
scalar FogNoLB.fog[18].server[0] droppedJobsTimout 3
scalar FogNoLB.fog[18].server[0] droppedJobsSLA 0
scalar FogNoLB.fog[18].server[0] droppedJobsTotal 118
scalar FogNoLB.fog[19].dispatcher localJobs 5875
scalar FogNoLB.fog[19].dispatcher remoteJobs 0
scalar FogNoLB.fog[19].dispatcher probeQueries 0
scalar FogNoLB.fog[19].dispatcher probeAnswers 0
scalar FogNoLB.fog[19].dispatcher droppedJobsSLA 0
scalar FogNoLB.fog[19].dispatcher jobs_class_1 5875
scalar FogNoLB.fog[19].dispatcher localJobs_class_1 5875
scalar FogNoLB.fog[19].server[0] rho 0.88900798559189
scalar FogNoLB.fog[19].server[0] congestionRatio 0
scalar FogNoLB.fog[19].server[0] totalJobs 5875
scalar FogNoLB.fog[19].server[0] droppedJobsQueue 125
scalar FogNoLB.fog[19].server[0] droppedJobsTimout 4
scalar FogNoLB.fog[19].server[0] droppedJobsSLA 0
scalar FogNoLB.fog[19].server[0] droppedJobsTotal 129
scalar FogNoLB.fog[20].dispatcher localJobs 5836
scalar FogNoLB.fog[20].dispatcher remoteJobs 0
scalar FogNoLB.fog[20].dispatcher probeQueries 0
scalar FogNoLB.fog[20].dispatcher probeAnswers 0
scalar FogNoLB.fog[20].dispatcher droppedJobsSLA 0
scalar FogNoLB.fog[20].dispatcher jobs_class_1 5836
scalar FogNoLB.fog[20].dispatcher localJobs_class_1 5836
scalar FogNoLB.fog[20].server[0] rho 0.88258421421051
scalar FogNoLB.fog[20].server[0] congestionRatio 0
scalar FogNoLB.fog[20].server[0] totalJobs 5836
scalar FogNoLB.fog[20].server[0] droppedJobsQueue 127
scalar FogNoLB.fog[20].server[0] droppedJobsTimout 9
scalar FogNoLB.fog[20].server[0] droppedJobsSLA 0
scalar FogNoLB.fog[20].server[0] droppedJobsTotal 136
scalar FogNoLB.fog[21].dispatcher localJobs 5720
scalar FogNoLB.fog[21].dispatcher remoteJobs 0
scalar FogNoLB.fog[21].dispatcher probeQueries 0
scalar FogNoLB.fog[21].dispatcher probeAnswers 0
scalar FogNoLB.fog[21].dispatcher droppedJobsSLA 0
scalar FogNoLB.fog[21].dispatcher jobs_class_1 5720
scalar FogNoLB.fog[21].dispatcher localJobs_class_1 5720
scalar FogNoLB.fog[21].server[0] rho 0.86562067270279
scalar FogNoLB.fog[21].server[0] congestionRatio 0
scalar FogNoLB.fog[21].server[0] totalJobs 5720
scalar FogNoLB.fog[21].server[0] droppedJobsQueue 116
scalar FogNoLB.fog[21].server[0] droppedJobsTimout 2
scalar FogNoLB.fog[21].server[0] droppedJobsSLA 0
scalar FogNoLB.fog[21].server[0] droppedJobsTotal 118
scalar FogNoLB.fog[22].dispatcher localJobs 5779
scalar FogNoLB.fog[22].dispatcher remoteJobs 0
scalar FogNoLB.fog[22].dispatcher probeQueries 0
scalar FogNoLB.fog[22].dispatcher probeAnswers 0
scalar FogNoLB.fog[22].dispatcher droppedJobsSLA 0
scalar FogNoLB.fog[22].dispatcher jobs_class_1 5779
scalar FogNoLB.fog[22].dispatcher localJobs_class_1 5779
scalar FogNoLB.fog[22].server[0] rho 0.88348877429962
scalar FogNoLB.fog[22].server[0] congestionRatio 0
scalar FogNoLB.fog[22].server[0] totalJobs 5779
scalar FogNoLB.fog[22].server[0] droppedJobsQueue 63
scalar FogNoLB.fog[22].server[0] droppedJobsTimout 7
scalar FogNoLB.fog[22].server[0] droppedJobsSLA 0
scalar FogNoLB.fog[22].server[0] droppedJobsTotal 70
scalar FogNoLB.fog[23].dispatcher localJobs 5820
scalar FogNoLB.fog[23].dispatcher remoteJobs 0
scalar FogNoLB.fog[23].dispatcher probeQueries 0
scalar FogNoLB.fog[23].dispatcher probeAnswers 0
scalar FogNoLB.fog[23].dispatcher droppedJobsSLA 0
scalar FogNoLB.fog[23].dispatcher jobs_class_1 5820
scalar FogNoLB.fog[23].dispatcher localJobs_class_1 5820
scalar FogNoLB.fog[23].server[0] rho 0.87848877906799
scalar FogNoLB.fog[23].server[0] congestionRatio 0
scalar FogNoLB.fog[23].server[0] totalJobs 5820
scalar FogNoLB.fog[23].server[0] droppedJobsQueue 131
scalar FogNoLB.fog[23].server[0] droppedJobsTimout 8
scalar FogNoLB.fog[23].server[0] droppedJobsSLA 0
scalar FogNoLB.fog[23].server[0] droppedJobsTotal 139
scalar FogNoLB.fog[24].dispatcher localJobs 5875
scalar FogNoLB.fog[24].dispatcher remoteJobs 0
scalar FogNoLB.fog[24].dispatcher probeQueries 0
scalar FogNoLB.fog[24].dispatcher probeAnswers 0
scalar FogNoLB.fog[24].dispatcher droppedJobsSLA 0
scalar FogNoLB.fog[24].dispatcher jobs_class_1 5875
scalar FogNoLB.fog[24].dispatcher localJobs_class_1 5875
scalar FogNoLB.fog[24].server[0] rho 0.8925433754921
scalar FogNoLB.fog[24].server[0] congestionRatio 0
scalar FogNoLB.fog[24].server[0] totalJobs 5875
scalar FogNoLB.fog[24].server[0] droppedJobsQueue 103
scalar FogNoLB.fog[24].server[0] droppedJobsTimout 10
scalar FogNoLB.fog[24].server[0] droppedJobsSLA 0
scalar FogNoLB.fog[24].server[0] droppedJobsTotal 113
scalar FogNoLB.fog[25].dispatcher localJobs 5840
scalar FogNoLB.fog[25].dispatcher remoteJobs 0
scalar FogNoLB.fog[25].dispatcher probeQueries 0
scalar FogNoLB.fog[25].dispatcher probeAnswers 0
scalar FogNoLB.fog[25].dispatcher droppedJobsSLA 0
scalar FogNoLB.fog[25].dispatcher jobs_class_1 5840
scalar FogNoLB.fog[25].dispatcher localJobs_class_1 5840
scalar FogNoLB.fog[25].server[0] rho 0.88386201858521
scalar FogNoLB.fog[25].server[0] congestionRatio 0
scalar FogNoLB.fog[25].server[0] totalJobs 5840
scalar FogNoLB.fog[25].server[0] droppedJobsQueue 123
scalar FogNoLB.fog[25].server[0] droppedJobsTimout 4
scalar FogNoLB.fog[25].server[0] droppedJobsSLA 0
scalar FogNoLB.fog[25].server[0] droppedJobsTotal 127
scalar FogNoLB.fog[26].dispatcher localJobs 5837
scalar FogNoLB.fog[26].dispatcher remoteJobs 0
scalar FogNoLB.fog[26].dispatcher probeQueries 0
scalar FogNoLB.fog[26].dispatcher probeAnswers 0
scalar FogNoLB.fog[26].dispatcher droppedJobsSLA 0
scalar FogNoLB.fog[26].dispatcher jobs_class_1 5837
scalar FogNoLB.fog[26].dispatcher localJobs_class_1 5837
scalar FogNoLB.fog[26].server[0] rho 0.88544708490372
scalar FogNoLB.fog[26].server[0] congestionRatio 0
scalar FogNoLB.fog[26].server[0] totalJobs 5837
scalar FogNoLB.fog[26].server[0] droppedJobsQueue 108
scalar FogNoLB.fog[26].server[0] droppedJobsTimout 5
scalar FogNoLB.fog[26].server[0] droppedJobsSLA 0
scalar FogNoLB.fog[26].server[0] droppedJobsTotal 113
scalar FogNoLB.fog[27].dispatcher localJobs 5758
scalar FogNoLB.fog[27].dispatcher remoteJobs 0
scalar FogNoLB.fog[27].dispatcher probeQueries 0
scalar FogNoLB.fog[27].dispatcher probeAnswers 0
scalar FogNoLB.fog[27].dispatcher droppedJobsSLA 0
scalar FogNoLB.fog[27].dispatcher jobs_class_1 5758
scalar FogNoLB.fog[27].dispatcher localJobs_class_1 5758
scalar FogNoLB.fog[27].server[0] rho 0.87958282232285
scalar FogNoLB.fog[27].server[0] congestionRatio 0
scalar FogNoLB.fog[27].server[0] totalJobs 5758
scalar FogNoLB.fog[27].server[0] droppedJobsQueue 65
scalar FogNoLB.fog[27].server[0] droppedJobsTimout 4
scalar FogNoLB.fog[27].server[0] droppedJobsSLA 0
scalar FogNoLB.fog[27].server[0] droppedJobsTotal 69
scalar FogNoLB.fog[28].dispatcher localJobs 5774
scalar FogNoLB.fog[28].dispatcher remoteJobs 0
scalar FogNoLB.fog[28].dispatcher probeQueries 0
scalar FogNoLB.fog[28].dispatcher probeAnswers 0
scalar FogNoLB.fog[28].dispatcher droppedJobsSLA 0
scalar FogNoLB.fog[28].dispatcher jobs_class_1 5774
scalar FogNoLB.fog[28].dispatcher localJobs_class_1 5774
scalar FogNoLB.fog[28].server[0] rho 0.87769287824631
scalar FogNoLB.fog[28].server[0] congestionRatio 0
scalar FogNoLB.fog[28].server[0] totalJobs 5774
scalar FogNoLB.fog[28].server[0] droppedJobsQueue 95
scalar FogNoLB.fog[28].server[0] droppedJobsTimout 5
scalar FogNoLB.fog[28].server[0] droppedJobsSLA 0
scalar FogNoLB.fog[28].server[0] droppedJobsTotal 100
scalar FogNoLB.fog[29].dispatcher localJobs 5870
scalar FogNoLB.fog[29].dispatcher remoteJobs 0
scalar FogNoLB.fog[29].dispatcher probeQueries 0
scalar FogNoLB.fog[29].dispatcher probeAnswers 0
scalar FogNoLB.fog[29].dispatcher droppedJobsSLA 0
scalar FogNoLB.fog[29].dispatcher jobs_class_1 5870
scalar FogNoLB.fog[29].dispatcher localJobs_class_1 5870
scalar FogNoLB.fog[29].server[0] rho 0.89337539672852
scalar FogNoLB.fog[29].server[0] congestionRatio 0
scalar FogNoLB.fog[29].server[0] totalJobs 5870
scalar FogNoLB.fog[29].server[0] droppedJobsQueue 92
scalar FogNoLB.fog[29].server[0] droppedJobsTimout 3
scalar FogNoLB.fog[29].server[0] droppedJobsSLA 0
scalar FogNoLB.fog[29].server[0] droppedJobsTotal 95
scalar FogNoLB.fog[30].dispatcher localJobs 5895
scalar FogNoLB.fog[30].dispatcher remoteJobs 0
scalar FogNoLB.fog[30].dispatcher probeQueries 0
scalar FogNoLB.fog[30].dispatcher probeAnswers 0
scalar FogNoLB.fog[30].dispatcher droppedJobsSLA 0
scalar FogNoLB.fog[30].dispatcher jobs_class_1 5895
scalar FogNoLB.fog[30].dispatcher localJobs_class_1 5895
scalar FogNoLB.fog[30].server[0] rho 0.89497739076614
scalar FogNoLB.fog[30].server[0] congestionRatio 0
scalar FogNoLB.fog[30].server[0] totalJobs 5895
scalar FogNoLB.fog[30].server[0] droppedJobsQueue 108
scalar FogNoLB.fog[30].server[0] droppedJobsTimout 11
scalar FogNoLB.fog[30].server[0] droppedJobsSLA 0
scalar FogNoLB.fog[30].server[0] droppedJobsTotal 119
scalar FogNoLB.fog[31].dispatcher localJobs 5806
scalar FogNoLB.fog[31].dispatcher remoteJobs 0
scalar FogNoLB.fog[31].dispatcher probeQueries 0
scalar FogNoLB.fog[31].dispatcher probeAnswers 0
scalar FogNoLB.fog[31].dispatcher droppedJobsSLA 0
scalar FogNoLB.fog[31].dispatcher jobs_class_1 5806
scalar FogNoLB.fog[31].dispatcher localJobs_class_1 5806
scalar FogNoLB.fog[31].server[0] rho 0.88259154558182
scalar FogNoLB.fog[31].server[0] congestionRatio 0
scalar FogNoLB.fog[31].server[0] totalJobs 5806
scalar FogNoLB.fog[31].server[0] droppedJobsQueue 88
scalar FogNoLB.fog[31].server[0] droppedJobsTimout 3
scalar FogNoLB.fog[31].server[0] droppedJobsSLA 0
scalar FogNoLB.fog[31].server[0] droppedJobsTotal 91
scalar FogNoLB.fog[32].dispatcher localJobs 5885
scalar FogNoLB.fog[32].dispatcher remoteJobs 0
scalar FogNoLB.fog[32].dispatcher probeQueries 0
scalar FogNoLB.fog[32].dispatcher probeAnswers 0
scalar FogNoLB.fog[32].dispatcher droppedJobsSLA 0
scalar FogNoLB.fog[32].dispatcher jobs_class_1 5885
scalar FogNoLB.fog[32].dispatcher localJobs_class_1 5885
scalar FogNoLB.fog[32].server[0] rho 0.89103597402573
scalar FogNoLB.fog[32].server[0] congestionRatio 0
scalar FogNoLB.fog[32].server[0] totalJobs 5885
scalar FogNoLB.fog[32].server[0] droppedJobsQueue 121
scalar FogNoLB.fog[32].server[0] droppedJobsTimout 8
scalar FogNoLB.fog[32].server[0] droppedJobsSLA 0
scalar FogNoLB.fog[32].server[0] droppedJobsTotal 129
scalar FogNoLB.fog[33].dispatcher localJobs 5727
scalar FogNoLB.fog[33].dispatcher remoteJobs 0
scalar FogNoLB.fog[33].dispatcher probeQueries 0
scalar FogNoLB.fog[33].dispatcher probeAnswers 0
scalar FogNoLB.fog[33].dispatcher droppedJobsSLA 0
scalar FogNoLB.fog[33].dispatcher jobs_class_1 5727
scalar FogNoLB.fog[33].dispatcher localJobs_class_1 5727
scalar FogNoLB.fog[33].server[0] rho 0.87722313404083
scalar FogNoLB.fog[33].server[0] congestionRatio 0
scalar FogNoLB.fog[33].server[0] totalJobs 5727
scalar FogNoLB.fog[33].server[0] droppedJobsQueue 51
scalar FogNoLB.fog[33].server[0] droppedJobsTimout 5
scalar FogNoLB.fog[33].server[0] droppedJobsSLA 0
scalar FogNoLB.fog[33].server[0] droppedJobsTotal 56
scalar FogNoLB.fog[34].dispatcher localJobs 5864
scalar FogNoLB.fog[34].dispatcher remoteJobs 0
scalar FogNoLB.fog[34].dispatcher probeQueries 0
scalar FogNoLB.fog[34].dispatcher probeAnswers 0
scalar FogNoLB.fog[34].dispatcher droppedJobsSLA 0
scalar FogNoLB.fog[34].dispatcher jobs_class_1 5864
scalar FogNoLB.fog[34].dispatcher localJobs_class_1 5864
scalar FogNoLB.fog[34].server[0] rho 0.89093863964081
scalar FogNoLB.fog[34].server[0] congestionRatio 0
scalar FogNoLB.fog[34].server[0] totalJobs 5864
scalar FogNoLB.fog[34].server[0] droppedJobsQueue 96
scalar FogNoLB.fog[34].server[0] droppedJobsTimout 4
scalar FogNoLB.fog[34].server[0] droppedJobsSLA 0
scalar FogNoLB.fog[34].server[0] droppedJobsTotal 100
scalar FogNoLB.fog[35].dispatcher localJobs 5686
scalar FogNoLB.fog[35].dispatcher remoteJobs 0
scalar FogNoLB.fog[35].dispatcher probeQueries 0
scalar FogNoLB.fog[35].dispatcher probeAnswers 0
scalar FogNoLB.fog[35].dispatcher droppedJobsSLA 0
scalar FogNoLB.fog[35].dispatcher jobs_class_1 5686
scalar FogNoLB.fog[35].dispatcher localJobs_class_1 5686
scalar FogNoLB.fog[35].server[0] rho 0.86774033308029
scalar FogNoLB.fog[35].server[0] congestionRatio 0
scalar FogNoLB.fog[35].server[0] totalJobs 5686
scalar FogNoLB.fog[35].server[0] droppedJobsQueue 71
scalar FogNoLB.fog[35].server[0] droppedJobsTimout 4
scalar FogNoLB.fog[35].server[0] droppedJobsSLA 0
scalar FogNoLB.fog[35].server[0] droppedJobsTotal 75
scalar FogNoLB.fog[36].dispatcher localJobs 5867
scalar FogNoLB.fog[36].dispatcher remoteJobs 0
scalar FogNoLB.fog[36].dispatcher probeQueries 0
scalar FogNoLB.fog[36].dispatcher probeAnswers 0
scalar FogNoLB.fog[36].dispatcher droppedJobsSLA 0
scalar FogNoLB.fog[36].dispatcher jobs_class_1 5867
scalar FogNoLB.fog[36].dispatcher localJobs_class_1 5867
scalar FogNoLB.fog[36].server[0] rho 0.88906532526016
scalar FogNoLB.fog[36].server[0] congestionRatio 0
scalar FogNoLB.fog[36].server[0] totalJobs 5867
scalar FogNoLB.fog[36].server[0] droppedJobsQueue 113
scalar FogNoLB.fog[36].server[0] droppedJobsTimout 2
scalar FogNoLB.fog[36].server[0] droppedJobsSLA 0
scalar FogNoLB.fog[36].server[0] droppedJobsTotal 115
scalar FogNoLB.fog[37].dispatcher localJobs 5854
scalar FogNoLB.fog[37].dispatcher remoteJobs 0
scalar FogNoLB.fog[37].dispatcher probeQueries 0
scalar FogNoLB.fog[37].dispatcher probeAnswers 0
scalar FogNoLB.fog[37].dispatcher droppedJobsSLA 0
scalar FogNoLB.fog[37].dispatcher jobs_class_1 5854
scalar FogNoLB.fog[37].dispatcher localJobs_class_1 5854
scalar FogNoLB.fog[37].server[0] rho 0.89218139648438
scalar FogNoLB.fog[37].server[0] congestionRatio 0
scalar FogNoLB.fog[37].server[0] totalJobs 5854
scalar FogNoLB.fog[37].server[0] droppedJobsQueue 82
scalar FogNoLB.fog[37].server[0] droppedJobsTimout 3
scalar FogNoLB.fog[37].server[0] droppedJobsSLA 0
scalar FogNoLB.fog[37].server[0] droppedJobsTotal 85
scalar FogNoLB.fog[38].dispatcher localJobs 5818
scalar FogNoLB.fog[38].dispatcher remoteJobs 0
scalar FogNoLB.fog[38].dispatcher probeQueries 0
scalar FogNoLB.fog[38].dispatcher probeAnswers 0
scalar FogNoLB.fog[38].dispatcher droppedJobsSLA 0
scalar FogNoLB.fog[38].dispatcher jobs_class_1 5818
scalar FogNoLB.fog[38].dispatcher localJobs_class_1 5818
scalar FogNoLB.fog[38].server[0] rho 0.8811959028244
scalar FogNoLB.fog[38].server[0] congestionRatio 0
scalar FogNoLB.fog[38].server[0] totalJobs 5818
scalar FogNoLB.fog[38].server[0] droppedJobsQueue 114
scalar FogNoLB.fog[38].server[0] droppedJobsTimout 6
scalar FogNoLB.fog[38].server[0] droppedJobsSLA 0
scalar FogNoLB.fog[38].server[0] droppedJobsTotal 120
scalar FogNoLB.fog[39].dispatcher localJobs 5663
scalar FogNoLB.fog[39].dispatcher remoteJobs 0
scalar FogNoLB.fog[39].dispatcher probeQueries 0
scalar FogNoLB.fog[39].dispatcher probeAnswers 0
scalar FogNoLB.fog[39].dispatcher droppedJobsSLA 0
scalar FogNoLB.fog[39].dispatcher jobs_class_1 5663
scalar FogNoLB.fog[39].dispatcher localJobs_class_1 5663
scalar FogNoLB.fog[39].server[0] rho 0.8652378320694
scalar FogNoLB.fog[39].server[0] congestionRatio 0
scalar FogNoLB.fog[39].server[0] totalJobs 5663
scalar FogNoLB.fog[39].server[0] droppedJobsQueue 66
scalar FogNoLB.fog[39].server[0] droppedJobsTimout 4
scalar FogNoLB.fog[39].server[0] droppedJobsSLA 0
scalar FogNoLB.fog[39].server[0] droppedJobsTotal 70
scalar FogNoLB.fog[40].dispatcher localJobs 5793
scalar FogNoLB.fog[40].dispatcher remoteJobs 0
scalar FogNoLB.fog[40].dispatcher probeQueries 0
scalar FogNoLB.fog[40].dispatcher probeAnswers 0
scalar FogNoLB.fog[40].dispatcher droppedJobsSLA 0
scalar FogNoLB.fog[40].dispatcher jobs_class_1 5793
scalar FogNoLB.fog[40].dispatcher localJobs_class_1 5793
scalar FogNoLB.fog[40].server[0] rho 0.88175803422928
scalar FogNoLB.fog[40].server[0] congestionRatio 0
scalar FogNoLB.fog[40].server[0] totalJobs 5793
scalar FogNoLB.fog[40].server[0] droppedJobsQueue 87
scalar FogNoLB.fog[40].server[0] droppedJobsTimout 6
scalar FogNoLB.fog[40].server[0] droppedJobsSLA 0
scalar FogNoLB.fog[40].server[0] droppedJobsTotal 93
scalar FogNoLB.fog[41].dispatcher localJobs 5907
scalar FogNoLB.fog[41].dispatcher remoteJobs 0
scalar FogNoLB.fog[41].dispatcher probeQueries 0
scalar FogNoLB.fog[41].dispatcher probeAnswers 0
scalar FogNoLB.fog[41].dispatcher droppedJobsSLA 0
scalar FogNoLB.fog[41].dispatcher jobs_class_1 5907
scalar FogNoLB.fog[41].dispatcher localJobs_class_1 5907
scalar FogNoLB.fog[41].server[0] rho 0.89600783586502
scalar FogNoLB.fog[41].server[0] congestionRatio 0
scalar FogNoLB.fog[41].server[0] totalJobs 5907
scalar FogNoLB.fog[41].server[0] droppedJobsQueue 113
scalar FogNoLB.fog[41].server[0] droppedJobsTimout 12
scalar FogNoLB.fog[41].server[0] droppedJobsSLA 0
scalar FogNoLB.fog[41].server[0] droppedJobsTotal 125
scalar FogNoLB.fog[42].dispatcher localJobs 5764
scalar FogNoLB.fog[42].dispatcher remoteJobs 0
scalar FogNoLB.fog[42].dispatcher probeQueries 0
scalar FogNoLB.fog[42].dispatcher probeAnswers 0
scalar FogNoLB.fog[42].dispatcher droppedJobsSLA 0
scalar FogNoLB.fog[42].dispatcher jobs_class_1 5764
scalar FogNoLB.fog[42].dispatcher localJobs_class_1 5764
scalar FogNoLB.fog[42].server[0] rho 0.87702757120132
scalar FogNoLB.fog[42].server[0] congestionRatio 0
scalar FogNoLB.fog[42].server[0] totalJobs 5764
scalar FogNoLB.fog[42].server[0] droppedJobsQueue 90
scalar FogNoLB.fog[42].server[0] droppedJobsTimout 5
scalar FogNoLB.fog[42].server[0] droppedJobsSLA 0
scalar FogNoLB.fog[42].server[0] droppedJobsTotal 95
scalar FogNoLB.fog[43].dispatcher localJobs 5773
scalar FogNoLB.fog[43].dispatcher remoteJobs 0
scalar FogNoLB.fog[43].dispatcher probeQueries 0
scalar FogNoLB.fog[43].dispatcher probeAnswers 0
scalar FogNoLB.fog[43].dispatcher droppedJobsSLA 0
scalar FogNoLB.fog[43].dispatcher jobs_class_1 5773
scalar FogNoLB.fog[43].dispatcher localJobs_class_1 5773
scalar FogNoLB.fog[43].server[0] rho 0.87984412908554
scalar FogNoLB.fog[43].server[0] congestionRatio 0
scalar FogNoLB.fog[43].server[0] totalJobs 5773
scalar FogNoLB.fog[43].server[0] droppedJobsQueue 80
scalar FogNoLB.fog[43].server[0] droppedJobsTimout 8
scalar FogNoLB.fog[43].server[0] droppedJobsSLA 0
scalar FogNoLB.fog[43].server[0] droppedJobsTotal 88
scalar FogNoLB.fog[44].dispatcher localJobs 5671
scalar FogNoLB.fog[44].dispatcher remoteJobs 0
scalar FogNoLB.fog[44].dispatcher probeQueries 0
scalar FogNoLB.fog[44].dispatcher probeAnswers 0
scalar FogNoLB.fog[44].dispatcher droppedJobsSLA 0
scalar FogNoLB.fog[44].dispatcher jobs_class_1 5671
scalar FogNoLB.fog[44].dispatcher localJobs_class_1 5671
scalar FogNoLB.fog[44].server[0] rho 0.8624615073204
scalar FogNoLB.fog[44].server[0] congestionRatio 0
scalar FogNoLB.fog[44].server[0] totalJobs 5671
scalar FogNoLB.fog[44].server[0] droppedJobsQueue 82
scalar FogNoLB.fog[44].server[0] droppedJobsTimout 2
scalar FogNoLB.fog[44].server[0] droppedJobsSLA 0
scalar FogNoLB.fog[44].server[0] droppedJobsTotal 84
scalar FogNoLB.fog[45].dispatcher localJobs 5859
scalar FogNoLB.fog[45].dispatcher remoteJobs 0
scalar FogNoLB.fog[45].dispatcher probeQueries 0
scalar FogNoLB.fog[45].dispatcher probeAnswers 0
scalar FogNoLB.fog[45].dispatcher droppedJobsSLA 0
scalar FogNoLB.fog[45].dispatcher jobs_class_1 5859
scalar FogNoLB.fog[45].dispatcher localJobs_class_1 5859
scalar FogNoLB.fog[45].server[0] rho 0.89339435100555
scalar FogNoLB.fog[45].server[0] congestionRatio 0
scalar FogNoLB.fog[45].server[0] totalJobs 5859
scalar FogNoLB.fog[45].server[0] droppedJobsQueue 81
scalar FogNoLB.fog[45].server[0] droppedJobsTimout 6
scalar FogNoLB.fog[45].server[0] droppedJobsSLA 0
scalar FogNoLB.fog[45].server[0] droppedJobsTotal 87
scalar FogNoLB.fog[46].dispatcher localJobs 5726
scalar FogNoLB.fog[46].dispatcher remoteJobs 0
scalar FogNoLB.fog[46].dispatcher probeQueries 0
scalar FogNoLB.fog[46].dispatcher probeAnswers 0
scalar FogNoLB.fog[46].dispatcher droppedJobsSLA 0
scalar FogNoLB.fog[46].dispatcher jobs_class_1 5726
scalar FogNoLB.fog[46].dispatcher localJobs_class_1 5726
scalar FogNoLB.fog[46].server[0] rho 0.87015891075134
scalar FogNoLB.fog[46].server[0] congestionRatio 0
scalar FogNoLB.fog[46].server[0] totalJobs 5726
scalar FogNoLB.fog[46].server[0] droppedJobsQueue 94
scalar FogNoLB.fog[46].server[0] droppedJobsTimout 3
scalar FogNoLB.fog[46].server[0] droppedJobsSLA 0
scalar FogNoLB.fog[46].server[0] droppedJobsTotal 97
scalar FogNoLB.fog[47].dispatcher localJobs 5698
scalar FogNoLB.fog[47].dispatcher remoteJobs 0
scalar FogNoLB.fog[47].dispatcher probeQueries 0
scalar FogNoLB.fog[47].dispatcher probeAnswers 0
scalar FogNoLB.fog[47].dispatcher droppedJobsSLA 0
scalar FogNoLB.fog[47].dispatcher jobs_class_1 5698
scalar FogNoLB.fog[47].dispatcher localJobs_class_1 5698
scalar FogNoLB.fog[47].server[0] rho 0.86744827032089
scalar FogNoLB.fog[47].server[0] congestionRatio 0
scalar FogNoLB.fog[47].server[0] totalJobs 5698
scalar FogNoLB.fog[47].server[0] droppedJobsQueue 87
scalar FogNoLB.fog[47].server[0] droppedJobsTimout 6
scalar FogNoLB.fog[47].server[0] droppedJobsSLA 0
scalar FogNoLB.fog[47].server[0] droppedJobsTotal 93
scalar FogNoLB.fog[48].dispatcher localJobs 5838
scalar FogNoLB.fog[48].dispatcher remoteJobs 0
scalar FogNoLB.fog[48].dispatcher probeQueries 0
scalar FogNoLB.fog[48].dispatcher probeAnswers 0
scalar FogNoLB.fog[48].dispatcher droppedJobsSLA 0
scalar FogNoLB.fog[48].dispatcher jobs_class_1 5838
scalar FogNoLB.fog[48].dispatcher localJobs_class_1 5838
scalar FogNoLB.fog[48].server[0] rho 0.88695704936981
scalar FogNoLB.fog[48].server[0] congestionRatio 0
scalar FogNoLB.fog[48].server[0] totalJobs 5838
scalar FogNoLB.fog[48].server[0] droppedJobsQueue 101
scalar FogNoLB.fog[48].server[0] droppedJobsTimout 2
scalar FogNoLB.fog[48].server[0] droppedJobsSLA 0
scalar FogNoLB.fog[48].server[0] droppedJobsTotal 103
scalar FogNoLB.fog[49].dispatcher localJobs 5784
scalar FogNoLB.fog[49].dispatcher remoteJobs 0
scalar FogNoLB.fog[49].dispatcher probeQueries 0
scalar FogNoLB.fog[49].dispatcher probeAnswers 0
scalar FogNoLB.fog[49].dispatcher droppedJobsSLA 0
scalar FogNoLB.fog[49].dispatcher jobs_class_1 5784
scalar FogNoLB.fog[49].dispatcher localJobs_class_1 5784
scalar FogNoLB.fog[49].server[0] rho 0.8768145442009
scalar FogNoLB.fog[49].server[0] congestionRatio 0
scalar FogNoLB.fog[49].server[0] totalJobs 5784
scalar FogNoLB.fog[49].server[0] droppedJobsQueue 110
scalar FogNoLB.fog[49].server[0] droppedJobsTimout 3
scalar FogNoLB.fog[49].server[0] droppedJobsSLA 0
scalar FogNoLB.fog[49].server[0] droppedJobsTotal 113
scalar FogNoLB.fog[50].dispatcher localJobs 5795
scalar FogNoLB.fog[50].dispatcher remoteJobs 0
scalar FogNoLB.fog[50].dispatcher probeQueries 0
scalar FogNoLB.fog[50].dispatcher probeAnswers 0
scalar FogNoLB.fog[50].dispatcher droppedJobsSLA 0
scalar FogNoLB.fog[50].dispatcher jobs_class_1 5795
scalar FogNoLB.fog[50].dispatcher localJobs_class_1 5795
scalar FogNoLB.fog[50].server[0] rho 0.88048386573792
scalar FogNoLB.fog[50].server[0] congestionRatio 0
scalar FogNoLB.fog[50].server[0] totalJobs 5795
scalar FogNoLB.fog[50].server[0] droppedJobsQueue 91
scalar FogNoLB.fog[50].server[0] droppedJobsTimout 4
scalar FogNoLB.fog[50].server[0] droppedJobsSLA 0
scalar FogNoLB.fog[50].server[0] droppedJobsTotal 95
scalar FogNoLB.fog[51].dispatcher localJobs 5917
scalar FogNoLB.fog[51].dispatcher remoteJobs 0
scalar FogNoLB.fog[51].dispatcher probeQueries 0
scalar FogNoLB.fog[51].dispatcher probeAnswers 0
scalar FogNoLB.fog[51].dispatcher droppedJobsSLA 0
scalar FogNoLB.fog[51].dispatcher jobs_class_1 5917
scalar FogNoLB.fog[51].dispatcher localJobs_class_1 5917
scalar FogNoLB.fog[51].server[0] rho 0.89644747972488
scalar FogNoLB.fog[51].server[0] congestionRatio 0
scalar FogNoLB.fog[51].server[0] totalJobs 5917
scalar FogNoLB.fog[51].server[0] droppedJobsQueue 120
scalar FogNoLB.fog[51].server[0] droppedJobsTimout 7
scalar FogNoLB.fog[51].server[0] droppedJobsSLA 0
scalar FogNoLB.fog[51].server[0] droppedJobsTotal 127
scalar FogNoLB.fog[52].dispatcher localJobs 5897
scalar FogNoLB.fog[52].dispatcher remoteJobs 0
scalar FogNoLB.fog[52].dispatcher probeQueries 0
scalar FogNoLB.fog[52].dispatcher probeAnswers 0
scalar FogNoLB.fog[52].dispatcher droppedJobsSLA 0
scalar FogNoLB.fog[52].dispatcher jobs_class_1 5897
scalar FogNoLB.fog[52].dispatcher localJobs_class_1 5897
scalar FogNoLB.fog[52].server[0] rho 0.88895070552826
scalar FogNoLB.fog[52].server[0] congestionRatio 0
scalar FogNoLB.fog[52].server[0] totalJobs 5897
scalar FogNoLB.fog[52].server[0] droppedJobsQueue 141
scalar FogNoLB.fog[52].server[0] droppedJobsTimout 9
scalar FogNoLB.fog[52].server[0] droppedJobsSLA 0
scalar FogNoLB.fog[52].server[0] droppedJobsTotal 150
scalar FogNoLB.fog[53].dispatcher localJobs 5784
scalar FogNoLB.fog[53].dispatcher remoteJobs 0
scalar FogNoLB.fog[53].dispatcher probeQueries 0
scalar FogNoLB.fog[53].dispatcher probeAnswers 0
scalar FogNoLB.fog[53].dispatcher droppedJobsSLA 0
scalar FogNoLB.fog[53].dispatcher jobs_class_1 5784
scalar FogNoLB.fog[53].dispatcher localJobs_class_1 5784
scalar FogNoLB.fog[53].server[0] rho 0.88019245862961
scalar FogNoLB.fog[53].server[0] congestionRatio 0
scalar FogNoLB.fog[53].server[0] totalJobs 5784
scalar FogNoLB.fog[53].server[0] droppedJobsQueue 91
scalar FogNoLB.fog[53].server[0] droppedJobsTimout 3
scalar FogNoLB.fog[53].server[0] droppedJobsSLA 0
scalar FogNoLB.fog[53].server[0] droppedJobsTotal 94
scalar FogNoLB.fog[54].dispatcher localJobs 5754
scalar FogNoLB.fog[54].dispatcher remoteJobs 0
scalar FogNoLB.fog[54].dispatcher probeQueries 0
scalar FogNoLB.fog[54].dispatcher probeAnswers 0
scalar FogNoLB.fog[54].dispatcher droppedJobsSLA 0
scalar FogNoLB.fog[54].dispatcher jobs_class_1 5754
scalar FogNoLB.fog[54].dispatcher localJobs_class_1 5754
scalar FogNoLB.fog[54].server[0] rho 0.87549424171448
scalar FogNoLB.fog[54].server[0] congestionRatio 0
scalar FogNoLB.fog[54].server[0] totalJobs 5754
scalar FogNoLB.fog[54].server[0] droppedJobsQueue 91
scalar FogNoLB.fog[54].server[0] droppedJobsTimout 2
scalar FogNoLB.fog[54].server[0] droppedJobsSLA 0
scalar FogNoLB.fog[54].server[0] droppedJobsTotal 93
scalar FogNoLB.fog[55].dispatcher localJobs 5855
scalar FogNoLB.fog[55].dispatcher remoteJobs 0
scalar FogNoLB.fog[55].dispatcher probeQueries 0
scalar FogNoLB.fog[55].dispatcher probeAnswers 0
scalar FogNoLB.fog[55].dispatcher droppedJobsSLA 0
scalar FogNoLB.fog[55].dispatcher jobs_class_1 5855
scalar FogNoLB.fog[55].dispatcher localJobs_class_1 5855
scalar FogNoLB.fog[55].server[0] rho 0.89164853096008
scalar FogNoLB.fog[55].server[0] congestionRatio 0
scalar FogNoLB.fog[55].server[0] totalJobs 5855
scalar FogNoLB.fog[55].server[0] droppedJobsQueue 83
scalar FogNoLB.fog[55].server[0] droppedJobsTimout 4
scalar FogNoLB.fog[55].server[0] droppedJobsSLA 0
scalar FogNoLB.fog[55].server[0] droppedJobsTotal 87
scalar FogNoLB.fog[56].dispatcher localJobs 5768
scalar FogNoLB.fog[56].dispatcher remoteJobs 0
scalar FogNoLB.fog[56].dispatcher probeQueries 0
scalar FogNoLB.fog[56].dispatcher probeAnswers 0
scalar FogNoLB.fog[56].dispatcher droppedJobsSLA 0
scalar FogNoLB.fog[56].dispatcher jobs_class_1 5768
scalar FogNoLB.fog[56].dispatcher localJobs_class_1 5768
scalar FogNoLB.fog[56].server[0] rho 0.88027876615524
scalar FogNoLB.fog[56].server[0] congestionRatio 0
scalar FogNoLB.fog[56].server[0] totalJobs 5768
scalar FogNoLB.fog[56].server[0] droppedJobsQueue 75
scalar FogNoLB.fog[56].server[0] droppedJobsTimout 5
scalar FogNoLB.fog[56].server[0] droppedJobsSLA 0
scalar FogNoLB.fog[56].server[0] droppedJobsTotal 80
scalar FogNoLB.fog[57].dispatcher localJobs 5759
scalar FogNoLB.fog[57].dispatcher remoteJobs 0
scalar FogNoLB.fog[57].dispatcher probeQueries 0
scalar FogNoLB.fog[57].dispatcher probeAnswers 0
scalar FogNoLB.fog[57].dispatcher droppedJobsSLA 0
scalar FogNoLB.fog[57].dispatcher jobs_class_1 5759
scalar FogNoLB.fog[57].dispatcher localJobs_class_1 5759
scalar FogNoLB.fog[57].server[0] rho 0.88129031658173
scalar FogNoLB.fog[57].server[0] congestionRatio 0
scalar FogNoLB.fog[57].server[0] totalJobs 5759
scalar FogNoLB.fog[57].server[0] droppedJobsQueue 54
scalar FogNoLB.fog[57].server[0] droppedJobsTimout 3
scalar FogNoLB.fog[57].server[0] droppedJobsSLA 0
scalar FogNoLB.fog[57].server[0] droppedJobsTotal 57
scalar FogNoLB.fog[58].dispatcher localJobs 5648
scalar FogNoLB.fog[58].dispatcher remoteJobs 0
scalar FogNoLB.fog[58].dispatcher probeQueries 0
scalar FogNoLB.fog[58].dispatcher probeAnswers 0
scalar FogNoLB.fog[58].dispatcher droppedJobsSLA 0
scalar FogNoLB.fog[58].dispatcher jobs_class_1 5648
scalar FogNoLB.fog[58].dispatcher localJobs_class_1 5648
scalar FogNoLB.fog[58].server[0] rho 0.86250221729279
scalar FogNoLB.fog[58].server[0] congestionRatio 0
scalar FogNoLB.fog[58].server[0] totalJobs 5648
scalar FogNoLB.fog[58].server[0] droppedJobsQueue 66
scalar FogNoLB.fog[58].server[0] droppedJobsTimout 3
scalar FogNoLB.fog[58].server[0] droppedJobsSLA 0
scalar FogNoLB.fog[58].server[0] droppedJobsTotal 69
scalar FogNoLB.fog[59].dispatcher localJobs 5801
scalar FogNoLB.fog[59].dispatcher remoteJobs 0
scalar FogNoLB.fog[59].dispatcher probeQueries 0
scalar FogNoLB.fog[59].dispatcher probeAnswers 0
scalar FogNoLB.fog[59].dispatcher droppedJobsSLA 0
scalar FogNoLB.fog[59].dispatcher jobs_class_1 5801
scalar FogNoLB.fog[59].dispatcher localJobs_class_1 5801
scalar FogNoLB.fog[59].server[0] rho 0.88580226898193
scalar FogNoLB.fog[59].server[0] congestionRatio 0
scalar FogNoLB.fog[59].server[0] totalJobs 5801
scalar FogNoLB.fog[59].server[0] droppedJobsQueue 72
scalar FogNoLB.fog[59].server[0] droppedJobsTimout 3
scalar FogNoLB.fog[59].server[0] droppedJobsSLA 0
scalar FogNoLB.fog[59].server[0] droppedJobsTotal 75
scalar FogNoLB.fog[60].dispatcher localJobs 5699
scalar FogNoLB.fog[60].dispatcher remoteJobs 0
scalar FogNoLB.fog[60].dispatcher probeQueries 0
scalar FogNoLB.fog[60].dispatcher probeAnswers 0
scalar FogNoLB.fog[60].dispatcher droppedJobsSLA 0
scalar FogNoLB.fog[60].dispatcher jobs_class_1 5699
scalar FogNoLB.fog[60].dispatcher localJobs_class_1 5699
scalar FogNoLB.fog[60].server[0] rho 0.87079054117203
scalar FogNoLB.fog[60].server[0] congestionRatio 0
scalar FogNoLB.fog[60].server[0] totalJobs 5699
scalar FogNoLB.fog[60].server[0] droppedJobsQueue 65
scalar FogNoLB.fog[60].server[0] droppedJobsTimout 3
scalar FogNoLB.fog[60].server[0] droppedJobsSLA 0
scalar FogNoLB.fog[60].server[0] droppedJobsTotal 68
scalar FogNoLB.fog[61].dispatcher localJobs 5727
scalar FogNoLB.fog[61].dispatcher remoteJobs 0
scalar FogNoLB.fog[61].dispatcher probeQueries 0
scalar FogNoLB.fog[61].dispatcher probeAnswers 0
scalar FogNoLB.fog[61].dispatcher droppedJobsSLA 0
scalar FogNoLB.fog[61].dispatcher jobs_class_1 5727
scalar FogNoLB.fog[61].dispatcher localJobs_class_1 5727
scalar FogNoLB.fog[61].server[0] rho 0.8712745308876
scalar FogNoLB.fog[61].server[0] congestionRatio 0
scalar FogNoLB.fog[61].server[0] totalJobs 5727
scalar FogNoLB.fog[61].server[0] droppedJobsQueue 90
scalar FogNoLB.fog[61].server[0] droppedJobsTimout 3
scalar FogNoLB.fog[61].server[0] droppedJobsSLA 0
scalar FogNoLB.fog[61].server[0] droppedJobsTotal 93
scalar FogNoLB.fog[62].dispatcher localJobs 5773
scalar FogNoLB.fog[62].dispatcher remoteJobs 0
scalar FogNoLB.fog[62].dispatcher probeQueries 0
scalar FogNoLB.fog[62].dispatcher probeAnswers 0
scalar FogNoLB.fog[62].dispatcher droppedJobsSLA 0
scalar FogNoLB.fog[62].dispatcher jobs_class_1 5773
scalar FogNoLB.fog[62].dispatcher localJobs_class_1 5773
scalar FogNoLB.fog[62].server[0] rho 0.88137024641037
scalar FogNoLB.fog[62].server[0] congestionRatio 0
scalar FogNoLB.fog[62].server[0] totalJobs 5773
scalar FogNoLB.fog[62].server[0] droppedJobsQueue 74
scalar FogNoLB.fog[62].server[0] droppedJobsTimout 1
scalar FogNoLB.fog[62].server[0] droppedJobsSLA 0
scalar FogNoLB.fog[62].server[0] droppedJobsTotal 75
scalar FogNoLB.fog[63].dispatcher localJobs 5837
scalar FogNoLB.fog[63].dispatcher remoteJobs 0
scalar FogNoLB.fog[63].dispatcher probeQueries 0
scalar FogNoLB.fog[63].dispatcher probeAnswers 0
scalar FogNoLB.fog[63].dispatcher droppedJobsSLA 0
scalar FogNoLB.fog[63].dispatcher jobs_class_1 5837
scalar FogNoLB.fog[63].dispatcher localJobs_class_1 5837
scalar FogNoLB.fog[63].server[0] rho 0.88834661245346
scalar FogNoLB.fog[63].server[0] congestionRatio 0
scalar FogNoLB.fog[63].server[0] totalJobs 5837
scalar FogNoLB.fog[63].server[0] droppedJobsQueue 86
scalar FogNoLB.fog[63].server[0] droppedJobsTimout 6
scalar FogNoLB.fog[63].server[0] droppedJobsSLA 0
scalar FogNoLB.fog[63].server[0] droppedJobsTotal 92
scalar FogNoLB.fog[64].dispatcher localJobs 5743
scalar FogNoLB.fog[64].dispatcher remoteJobs 0
scalar FogNoLB.fog[64].dispatcher probeQueries 0
scalar FogNoLB.fog[64].dispatcher probeAnswers 0
scalar FogNoLB.fog[64].dispatcher droppedJobsSLA 0
scalar FogNoLB.fog[64].dispatcher jobs_class_1 5743
scalar FogNoLB.fog[64].dispatcher localJobs_class_1 5743
scalar FogNoLB.fog[64].server[0] rho 0.87625253200531
scalar FogNoLB.fog[64].server[0] congestionRatio 0
scalar FogNoLB.fog[64].server[0] totalJobs 5743
scalar FogNoLB.fog[64].server[0] droppedJobsQueue 79
scalar FogNoLB.fog[64].server[0] droppedJobsTimout 4
scalar FogNoLB.fog[64].server[0] droppedJobsSLA 0
scalar FogNoLB.fog[64].server[0] droppedJobsTotal 83
scalar FogNoLB.fog[65].dispatcher localJobs 5887
scalar FogNoLB.fog[65].dispatcher remoteJobs 0
scalar FogNoLB.fog[65].dispatcher probeQueries 0
scalar FogNoLB.fog[65].dispatcher probeAnswers 0
scalar FogNoLB.fog[65].dispatcher droppedJobsSLA 0
scalar FogNoLB.fog[65].dispatcher jobs_class_1 5887
scalar FogNoLB.fog[65].dispatcher localJobs_class_1 5887
scalar FogNoLB.fog[65].server[0] rho 0.89239925146103
scalar FogNoLB.fog[65].server[0] congestionRatio 0
scalar FogNoLB.fog[65].server[0] totalJobs 5887
scalar FogNoLB.fog[65].server[0] droppedJobsQueue 116
scalar FogNoLB.fog[65].server[0] droppedJobsTimout 6
scalar FogNoLB.fog[65].server[0] droppedJobsSLA 0
scalar FogNoLB.fog[65].server[0] droppedJobsTotal 122
scalar FogNoLB.fog[66].dispatcher localJobs 5870
scalar FogNoLB.fog[66].dispatcher remoteJobs 0
scalar FogNoLB.fog[66].dispatcher probeQueries 0
scalar FogNoLB.fog[66].dispatcher probeAnswers 0
scalar FogNoLB.fog[66].dispatcher droppedJobsSLA 0
scalar FogNoLB.fog[66].dispatcher jobs_class_1 5870
scalar FogNoLB.fog[66].dispatcher localJobs_class_1 5870
scalar FogNoLB.fog[66].server[0] rho 0.89117926359177
scalar FogNoLB.fog[66].server[0] congestionRatio 0
scalar FogNoLB.fog[66].server[0] totalJobs 5870
scalar FogNoLB.fog[66].server[0] droppedJobsQueue 104
scalar FogNoLB.fog[66].server[0] droppedJobsTimout 4
scalar FogNoLB.fog[66].server[0] droppedJobsSLA 0
scalar FogNoLB.fog[66].server[0] droppedJobsTotal 108
scalar FogNoLB.fog[67].dispatcher localJobs 5878
scalar FogNoLB.fog[67].dispatcher remoteJobs 0
scalar FogNoLB.fog[67].dispatcher probeQueries 0
scalar FogNoLB.fog[67].dispatcher probeAnswers 0
scalar FogNoLB.fog[67].dispatcher droppedJobsSLA 0
scalar FogNoLB.fog[67].dispatcher jobs_class_1 5878
scalar FogNoLB.fog[67].dispatcher localJobs_class_1 5878
scalar FogNoLB.fog[67].server[0] rho 0.88978934288025
scalar FogNoLB.fog[67].server[0] congestionRatio 0
scalar FogNoLB.fog[67].server[0] totalJobs 5878
scalar FogNoLB.fog[67].server[0] droppedJobsQueue 117
scalar FogNoLB.fog[67].server[0] droppedJobsTimout 12
scalar FogNoLB.fog[67].server[0] droppedJobsSLA 0
scalar FogNoLB.fog[67].server[0] droppedJobsTotal 129
scalar FogNoLB.fog[68].dispatcher localJobs 5899
scalar FogNoLB.fog[68].dispatcher remoteJobs 0
scalar FogNoLB.fog[68].dispatcher probeQueries 0
scalar FogNoLB.fog[68].dispatcher probeAnswers 0
scalar FogNoLB.fog[68].dispatcher droppedJobsSLA 0
scalar FogNoLB.fog[68].dispatcher jobs_class_1 5899
scalar FogNoLB.fog[68].dispatcher localJobs_class_1 5899
scalar FogNoLB.fog[68].server[0] rho 0.89179992675781
scalar FogNoLB.fog[68].server[0] congestionRatio 0
scalar FogNoLB.fog[68].server[0] totalJobs 5899
scalar FogNoLB.fog[68].server[0] droppedJobsQueue 127
scalar FogNoLB.fog[68].server[0] droppedJobsTimout 4
scalar FogNoLB.fog[68].server[0] droppedJobsSLA 0
scalar FogNoLB.fog[68].server[0] droppedJobsTotal 131
scalar FogNoLB.fog[69].dispatcher localJobs 5767
scalar FogNoLB.fog[69].dispatcher remoteJobs 0
scalar FogNoLB.fog[69].dispatcher probeQueries 0
scalar FogNoLB.fog[69].dispatcher probeAnswers 0
scalar FogNoLB.fog[69].dispatcher droppedJobsSLA 0
scalar FogNoLB.fog[69].dispatcher jobs_class_1 5767
scalar FogNoLB.fog[69].dispatcher localJobs_class_1 5767
scalar FogNoLB.fog[69].server[0] rho 0.87863880395889
scalar FogNoLB.fog[69].server[0] congestionRatio 0
scalar FogNoLB.fog[69].server[0] totalJobs 5767
scalar FogNoLB.fog[69].server[0] droppedJobsQueue 82
scalar FogNoLB.fog[69].server[0] droppedJobsTimout 1
scalar FogNoLB.fog[69].server[0] droppedJobsSLA 0
scalar FogNoLB.fog[69].server[0] droppedJobsTotal 83
scalar FogNoLB.fog[70].dispatcher localJobs 5800
scalar FogNoLB.fog[70].dispatcher remoteJobs 0
scalar FogNoLB.fog[70].dispatcher probeQueries 0
scalar FogNoLB.fog[70].dispatcher probeAnswers 0
scalar FogNoLB.fog[70].dispatcher droppedJobsSLA 0
scalar FogNoLB.fog[70].dispatcher jobs_class_1 5800
scalar FogNoLB.fog[70].dispatcher localJobs_class_1 5800
scalar FogNoLB.fog[70].server[0] rho 0.88269966840744
scalar FogNoLB.fog[70].server[0] congestionRatio 0
scalar FogNoLB.fog[70].server[0] totalJobs 5800
scalar FogNoLB.fog[70].server[0] droppedJobsQueue 90
scalar FogNoLB.fog[70].server[0] droppedJobsTimout 4
scalar FogNoLB.fog[70].server[0] droppedJobsSLA 0
scalar FogNoLB.fog[70].server[0] droppedJobsTotal 94
scalar FogNoLB.fog[71].dispatcher localJobs 5777
scalar FogNoLB.fog[71].dispatcher remoteJobs 0
scalar FogNoLB.fog[71].dispatcher probeQueries 0
scalar FogNoLB.fog[71].dispatcher probeAnswers 0
scalar FogNoLB.fog[71].dispatcher droppedJobsSLA 0
scalar FogNoLB.fog[71].dispatcher jobs_class_1 5777
scalar FogNoLB.fog[71].dispatcher localJobs_class_1 5777
scalar FogNoLB.fog[71].server[0] rho 0.87804388999939
scalar FogNoLB.fog[71].server[0] congestionRatio 0
scalar FogNoLB.fog[71].server[0] totalJobs 5777
scalar FogNoLB.fog[71].server[0] droppedJobsQueue 98
scalar FogNoLB.fog[71].server[0] droppedJobsTimout 4
scalar FogNoLB.fog[71].server[0] droppedJobsSLA 0
scalar FogNoLB.fog[71].server[0] droppedJobsTotal 102
scalar FogNoLB.fog[72].dispatcher localJobs 5885
scalar FogNoLB.fog[72].dispatcher remoteJobs 0
scalar FogNoLB.fog[72].dispatcher probeQueries 0
scalar FogNoLB.fog[72].dispatcher probeAnswers 0
scalar FogNoLB.fog[72].dispatcher droppedJobsSLA 0
scalar FogNoLB.fog[72].dispatcher jobs_class_1 5885
scalar FogNoLB.fog[72].dispatcher localJobs_class_1 5885
scalar FogNoLB.fog[72].server[0] rho 0.89113521575928
scalar FogNoLB.fog[72].server[0] congestionRatio 0
scalar FogNoLB.fog[72].server[0] totalJobs 5885
scalar FogNoLB.fog[72].server[0] droppedJobsQueue 118
scalar FogNoLB.fog[72].server[0] droppedJobsTimout 9
scalar FogNoLB.fog[72].server[0] droppedJobsSLA 0
scalar FogNoLB.fog[72].server[0] droppedJobsTotal 127
scalar FogNoLB.fog[73].dispatcher localJobs 5757
scalar FogNoLB.fog[73].dispatcher remoteJobs 0
scalar FogNoLB.fog[73].dispatcher probeQueries 0
scalar FogNoLB.fog[73].dispatcher probeAnswers 0
scalar FogNoLB.fog[73].dispatcher droppedJobsSLA 0
scalar FogNoLB.fog[73].dispatcher jobs_class_1 5757
scalar FogNoLB.fog[73].dispatcher localJobs_class_1 5757
scalar FogNoLB.fog[73].server[0] rho 0.87009745836258
scalar FogNoLB.fog[73].server[0] congestionRatio 0
scalar FogNoLB.fog[73].server[0] totalJobs 5757
scalar FogNoLB.fog[73].server[0] droppedJobsQueue 123
scalar FogNoLB.fog[73].server[0] droppedJobsTimout 4
scalar FogNoLB.fog[73].server[0] droppedJobsSLA 0
scalar FogNoLB.fog[73].server[0] droppedJobsTotal 127
scalar FogNoLB.fog[74].dispatcher localJobs 5838
scalar FogNoLB.fog[74].dispatcher remoteJobs 0
scalar FogNoLB.fog[74].dispatcher probeQueries 0
scalar FogNoLB.fog[74].dispatcher probeAnswers 0
scalar FogNoLB.fog[74].dispatcher droppedJobsSLA 0
scalar FogNoLB.fog[74].dispatcher jobs_class_1 5838
scalar FogNoLB.fog[74].dispatcher localJobs_class_1 5838
scalar FogNoLB.fog[74].server[0] rho 0.88710385560989
scalar FogNoLB.fog[74].server[0] congestionRatio 0
scalar FogNoLB.fog[74].server[0] totalJobs 5838
scalar FogNoLB.fog[74].server[0] droppedJobsQueue 92
scalar FogNoLB.fog[74].server[0] droppedJobsTimout 4
scalar FogNoLB.fog[74].server[0] droppedJobsSLA 0
scalar FogNoLB.fog[74].server[0] droppedJobsTotal 96
scalar FogNoLB.fog[75].dispatcher localJobs 5839
scalar FogNoLB.fog[75].dispatcher remoteJobs 0
scalar FogNoLB.fog[75].dispatcher probeQueries 0
scalar FogNoLB.fog[75].dispatcher probeAnswers 0
scalar FogNoLB.fog[75].dispatcher droppedJobsSLA 0
scalar FogNoLB.fog[75].dispatcher jobs_class_1 5839
scalar FogNoLB.fog[75].dispatcher localJobs_class_1 5839
scalar FogNoLB.fog[75].server[0] rho 0.88997495174408
scalar FogNoLB.fog[75].server[0] congestionRatio 0
scalar FogNoLB.fog[75].server[0] totalJobs 5839
scalar FogNoLB.fog[75].server[0] droppedJobsQueue 81
scalar FogNoLB.fog[75].server[0] droppedJobsTimout 3
scalar FogNoLB.fog[75].server[0] droppedJobsSLA 0
scalar FogNoLB.fog[75].server[0] droppedJobsTotal 84
scalar FogNoLB.fog[76].dispatcher localJobs 5845
scalar FogNoLB.fog[76].dispatcher remoteJobs 0
scalar FogNoLB.fog[76].dispatcher probeQueries 0
scalar FogNoLB.fog[76].dispatcher probeAnswers 0
scalar FogNoLB.fog[76].dispatcher droppedJobsSLA 0
scalar FogNoLB.fog[76].dispatcher jobs_class_1 5845
scalar FogNoLB.fog[76].dispatcher localJobs_class_1 5845
scalar FogNoLB.fog[76].server[0] rho 0.89178037643433
scalar FogNoLB.fog[76].server[0] congestionRatio 0
scalar FogNoLB.fog[76].server[0] totalJobs 5845
scalar FogNoLB.fog[76].server[0] droppedJobsQueue 74
scalar FogNoLB.fog[76].server[0] droppedJobsTimout 1
scalar FogNoLB.fog[76].server[0] droppedJobsSLA 0
scalar FogNoLB.fog[76].server[0] droppedJobsTotal 75
scalar FogNoLB.fog[77].dispatcher localJobs 5723
scalar FogNoLB.fog[77].dispatcher remoteJobs 0
scalar FogNoLB.fog[77].dispatcher probeQueries 0
scalar FogNoLB.fog[77].dispatcher probeAnswers 0
scalar FogNoLB.fog[77].dispatcher droppedJobsSLA 0
scalar FogNoLB.fog[77].dispatcher jobs_class_1 5723
scalar FogNoLB.fog[77].dispatcher localJobs_class_1 5723
scalar FogNoLB.fog[77].server[0] rho 0.87349408864975
scalar FogNoLB.fog[77].server[0] congestionRatio 0
scalar FogNoLB.fog[77].server[0] totalJobs 5723
scalar FogNoLB.fog[77].server[0] droppedJobsQueue 65
scalar FogNoLB.fog[77].server[0] droppedJobsTimout 2
scalar FogNoLB.fog[77].server[0] droppedJobsSLA 0
scalar FogNoLB.fog[77].server[0] droppedJobsTotal 67
scalar FogNoLB.fog[78].dispatcher localJobs 5822
scalar FogNoLB.fog[78].dispatcher remoteJobs 0
scalar FogNoLB.fog[78].dispatcher probeQueries 0
scalar FogNoLB.fog[78].dispatcher probeAnswers 0
scalar FogNoLB.fog[78].dispatcher droppedJobsSLA 0
scalar FogNoLB.fog[78].dispatcher jobs_class_1 5822
scalar FogNoLB.fog[78].dispatcher localJobs_class_1 5822
scalar FogNoLB.fog[78].server[0] rho 0.88511025905609
scalar FogNoLB.fog[78].server[0] congestionRatio 0
scalar FogNoLB.fog[78].server[0] totalJobs 5822
scalar FogNoLB.fog[78].server[0] droppedJobsQueue 97
scalar FogNoLB.fog[78].server[0] droppedJobsTimout 7
scalar FogNoLB.fog[78].server[0] droppedJobsSLA 0
scalar FogNoLB.fog[78].server[0] droppedJobsTotal 104
scalar FogNoLB.fog[79].dispatcher localJobs 6005
scalar FogNoLB.fog[79].dispatcher remoteJobs 0
scalar FogNoLB.fog[79].dispatcher probeQueries 0
scalar FogNoLB.fog[79].dispatcher probeAnswers 0
scalar FogNoLB.fog[79].dispatcher droppedJobsSLA 0
scalar FogNoLB.fog[79].dispatcher jobs_class_1 6005
scalar FogNoLB.fog[79].dispatcher localJobs_class_1 6005
scalar FogNoLB.fog[79].server[0] rho 0.90627300739288
scalar FogNoLB.fog[79].server[0] congestionRatio 0
scalar FogNoLB.fog[79].server[0] totalJobs 6005
scalar FogNoLB.fog[79].server[0] droppedJobsQueue 140
scalar FogNoLB.fog[79].server[0] droppedJobsTimout 2
scalar FogNoLB.fog[79].server[0] droppedJobsSLA 0
scalar FogNoLB.fog[79].server[0] droppedJobsTotal 142
scalar FogNoLB.fog[80].dispatcher localJobs 5885
scalar FogNoLB.fog[80].dispatcher remoteJobs 0
scalar FogNoLB.fog[80].dispatcher probeQueries 0
scalar FogNoLB.fog[80].dispatcher probeAnswers 0
scalar FogNoLB.fog[80].dispatcher droppedJobsSLA 0
scalar FogNoLB.fog[80].dispatcher jobs_class_1 5885
scalar FogNoLB.fog[80].dispatcher localJobs_class_1 5885
scalar FogNoLB.fog[80].server[0] rho 0.89190703630447
scalar FogNoLB.fog[80].server[0] congestionRatio 0
scalar FogNoLB.fog[80].server[0] totalJobs 5885
scalar FogNoLB.fog[80].server[0] droppedJobsQueue 116
scalar FogNoLB.fog[80].server[0] droppedJobsTimout 4
scalar FogNoLB.fog[80].server[0] droppedJobsSLA 0
scalar FogNoLB.fog[80].server[0] droppedJobsTotal 120
scalar FogNoLB.fog[81].dispatcher localJobs 5911
scalar FogNoLB.fog[81].dispatcher remoteJobs 0
scalar FogNoLB.fog[81].dispatcher probeQueries 0
scalar FogNoLB.fog[81].dispatcher probeAnswers 0
scalar FogNoLB.fog[81].dispatcher droppedJobsSLA 0
scalar FogNoLB.fog[81].dispatcher jobs_class_1 5911
scalar FogNoLB.fog[81].dispatcher localJobs_class_1 5911
scalar FogNoLB.fog[81].server[0] rho 0.89522176980972
scalar FogNoLB.fog[81].server[0] congestionRatio 0
scalar FogNoLB.fog[81].server[0] totalJobs 5911
scalar FogNoLB.fog[81].server[0] droppedJobsQueue 114
scalar FogNoLB.fog[81].server[0] droppedJobsTimout 5
scalar FogNoLB.fog[81].server[0] droppedJobsSLA 0
scalar FogNoLB.fog[81].server[0] droppedJobsTotal 119
scalar FogNoLB.fog[82].dispatcher localJobs 5790
scalar FogNoLB.fog[82].dispatcher remoteJobs 0
scalar FogNoLB.fog[82].dispatcher probeQueries 0
scalar FogNoLB.fog[82].dispatcher probeAnswers 0
scalar FogNoLB.fog[82].dispatcher droppedJobsSLA 0
scalar FogNoLB.fog[82].dispatcher jobs_class_1 5790
scalar FogNoLB.fog[82].dispatcher localJobs_class_1 5790
scalar FogNoLB.fog[82].server[0] rho 0.88430100679398
scalar FogNoLB.fog[82].server[0] congestionRatio 0
scalar FogNoLB.fog[82].server[0] totalJobs 5790
scalar FogNoLB.fog[82].server[0] droppedJobsQueue 69
scalar FogNoLB.fog[82].server[0] droppedJobsTimout 5
scalar FogNoLB.fog[82].server[0] droppedJobsSLA 0
scalar FogNoLB.fog[82].server[0] droppedJobsTotal 74
scalar FogNoLB.fog[83].dispatcher localJobs 5883
scalar FogNoLB.fog[83].dispatcher remoteJobs 0
scalar FogNoLB.fog[83].dispatcher probeQueries 0
scalar FogNoLB.fog[83].dispatcher probeAnswers 0
scalar FogNoLB.fog[83].dispatcher droppedJobsSLA 0
scalar FogNoLB.fog[83].dispatcher jobs_class_1 5883
scalar FogNoLB.fog[83].dispatcher localJobs_class_1 5883
scalar FogNoLB.fog[83].server[0] rho 0.89547085762024
scalar FogNoLB.fog[83].server[0] congestionRatio 0
scalar FogNoLB.fog[83].server[0] totalJobs 5883
scalar FogNoLB.fog[83].server[0] droppedJobsQueue 90
scalar FogNoLB.fog[83].server[0] droppedJobsTimout 7
scalar FogNoLB.fog[83].server[0] droppedJobsSLA 0
scalar FogNoLB.fog[83].server[0] droppedJobsTotal 97
scalar FogNoLB.fog[84].dispatcher localJobs 5760
scalar FogNoLB.fog[84].dispatcher remoteJobs 0
scalar FogNoLB.fog[84].dispatcher probeQueries 0
scalar FogNoLB.fog[84].dispatcher probeAnswers 0
scalar FogNoLB.fog[84].dispatcher droppedJobsSLA 0
scalar FogNoLB.fog[84].dispatcher jobs_class_1 5760
scalar FogNoLB.fog[84].dispatcher localJobs_class_1 5760
scalar FogNoLB.fog[84].server[0] rho 0.8820772767067
scalar FogNoLB.fog[84].server[0] congestionRatio 0
scalar FogNoLB.fog[84].server[0] totalJobs 5760
scalar FogNoLB.fog[84].server[0] droppedJobsQueue 56
scalar FogNoLB.fog[84].server[0] droppedJobsTimout 2
scalar FogNoLB.fog[84].server[0] droppedJobsSLA 0
scalar FogNoLB.fog[84].server[0] droppedJobsTotal 58
scalar FogNoLB.fog[85].dispatcher localJobs 5739
scalar FogNoLB.fog[85].dispatcher remoteJobs 0
scalar FogNoLB.fog[85].dispatcher probeQueries 0
scalar FogNoLB.fog[85].dispatcher probeAnswers 0
scalar FogNoLB.fog[85].dispatcher droppedJobsSLA 0
scalar FogNoLB.fog[85].dispatcher jobs_class_1 5739
scalar FogNoLB.fog[85].dispatcher localJobs_class_1 5739
scalar FogNoLB.fog[85].server[0] rho 0.87624323368073
scalar FogNoLB.fog[85].server[0] congestionRatio 0
scalar FogNoLB.fog[85].server[0] totalJobs 5739
scalar FogNoLB.fog[85].server[0] droppedJobsQueue 75
scalar FogNoLB.fog[85].server[0] droppedJobsTimout 5
scalar FogNoLB.fog[85].server[0] droppedJobsSLA 0
scalar FogNoLB.fog[85].server[0] droppedJobsTotal 80
scalar FogNoLB.fog[86].dispatcher localJobs 5837
scalar FogNoLB.fog[86].dispatcher remoteJobs 0
scalar FogNoLB.fog[86].dispatcher probeQueries 0
scalar FogNoLB.fog[86].dispatcher probeAnswers 0
scalar FogNoLB.fog[86].dispatcher droppedJobsSLA 0
scalar FogNoLB.fog[86].dispatcher jobs_class_1 5837
scalar FogNoLB.fog[86].dispatcher localJobs_class_1 5837
scalar FogNoLB.fog[86].server[0] rho 0.8906809091568
scalar FogNoLB.fog[86].server[0] congestionRatio 0
scalar FogNoLB.fog[86].server[0] totalJobs 5837
scalar FogNoLB.fog[86].server[0] droppedJobsQueue 77
scalar FogNoLB.fog[86].server[0] droppedJobsTimout 5
scalar FogNoLB.fog[86].server[0] droppedJobsSLA 0
scalar FogNoLB.fog[86].server[0] droppedJobsTotal 82
scalar FogNoLB.fog[87].dispatcher localJobs 5810
scalar FogNoLB.fog[87].dispatcher remoteJobs 0
scalar FogNoLB.fog[87].dispatcher probeQueries 0
scalar FogNoLB.fog[87].dispatcher probeAnswers 0
scalar FogNoLB.fog[87].dispatcher droppedJobsSLA 0
scalar FogNoLB.fog[87].dispatcher jobs_class_1 5810
scalar FogNoLB.fog[87].dispatcher localJobs_class_1 5810
scalar FogNoLB.fog[87].server[0] rho 0.88419097661972
scalar FogNoLB.fog[87].server[0] congestionRatio 0
scalar FogNoLB.fog[87].server[0] totalJobs 5810
scalar FogNoLB.fog[87].server[0] droppedJobsQueue 93
scalar FogNoLB.fog[87].server[0] droppedJobsTimout 7
scalar FogNoLB.fog[87].server[0] droppedJobsSLA 0
scalar FogNoLB.fog[87].server[0] droppedJobsTotal 100
scalar FogNoLB.fog[88].dispatcher localJobs 5869
scalar FogNoLB.fog[88].dispatcher remoteJobs 0
scalar FogNoLB.fog[88].dispatcher probeQueries 0
scalar FogNoLB.fog[88].dispatcher probeAnswers 0
scalar FogNoLB.fog[88].dispatcher droppedJobsSLA 0
scalar FogNoLB.fog[88].dispatcher jobs_class_1 5869
scalar FogNoLB.fog[88].dispatcher localJobs_class_1 5869
scalar FogNoLB.fog[88].server[0] rho 0.88658493757248
scalar FogNoLB.fog[88].server[0] congestionRatio 0
scalar FogNoLB.fog[88].server[0] totalJobs 5869
scalar FogNoLB.fog[88].server[0] droppedJobsQueue 127
scalar FogNoLB.fog[88].server[0] droppedJobsTimout 5
scalar FogNoLB.fog[88].server[0] droppedJobsSLA 0
scalar FogNoLB.fog[88].server[0] droppedJobsTotal 132
scalar FogNoLB.fog[89].dispatcher localJobs 5787
scalar FogNoLB.fog[89].dispatcher remoteJobs 0
scalar FogNoLB.fog[89].dispatcher probeQueries 0
scalar FogNoLB.fog[89].dispatcher probeAnswers 0
scalar FogNoLB.fog[89].dispatcher droppedJobsSLA 0
scalar FogNoLB.fog[89].dispatcher jobs_class_1 5787
scalar FogNoLB.fog[89].dispatcher localJobs_class_1 5787
scalar FogNoLB.fog[89].server[0] rho 0.8839715719223
scalar FogNoLB.fog[89].server[0] congestionRatio 0
scalar FogNoLB.fog[89].server[0] totalJobs 5787
scalar FogNoLB.fog[89].server[0] droppedJobsQueue 67
scalar FogNoLB.fog[89].server[0] droppedJobsTimout 2
scalar FogNoLB.fog[89].server[0] droppedJobsSLA 0
scalar FogNoLB.fog[89].server[0] droppedJobsTotal 69
scalar FogNoLB.fog[90].dispatcher localJobs 5759
scalar FogNoLB.fog[90].dispatcher remoteJobs 0
scalar FogNoLB.fog[90].dispatcher probeQueries 0
scalar FogNoLB.fog[90].dispatcher probeAnswers 0
scalar FogNoLB.fog[90].dispatcher droppedJobsSLA 0
scalar FogNoLB.fog[90].dispatcher jobs_class_1 5759
scalar FogNoLB.fog[90].dispatcher localJobs_class_1 5759
scalar FogNoLB.fog[90].server[0] rho 0.87495690584183
scalar FogNoLB.fog[90].server[0] congestionRatio 0
scalar FogNoLB.fog[90].server[0] totalJobs 5759
scalar FogNoLB.fog[90].server[0] droppedJobsQueue 98
scalar FogNoLB.fog[90].server[0] droppedJobsTimout 8
scalar FogNoLB.fog[90].server[0] droppedJobsSLA 0
scalar FogNoLB.fog[90].server[0] droppedJobsTotal 106
scalar FogNoLB.fog[91].dispatcher localJobs 5766
scalar FogNoLB.fog[91].dispatcher remoteJobs 0
scalar FogNoLB.fog[91].dispatcher probeQueries 0
scalar FogNoLB.fog[91].dispatcher probeAnswers 0
scalar FogNoLB.fog[91].dispatcher droppedJobsSLA 0
scalar FogNoLB.fog[91].dispatcher jobs_class_1 5766
scalar FogNoLB.fog[91].dispatcher localJobs_class_1 5766
scalar FogNoLB.fog[91].server[0] rho 0.88011908531189
scalar FogNoLB.fog[91].server[0] congestionRatio 0
scalar FogNoLB.fog[91].server[0] totalJobs 5766
scalar FogNoLB.fog[91].server[0] droppedJobsQueue 75
scalar FogNoLB.fog[91].server[0] droppedJobsTimout 2
scalar FogNoLB.fog[91].server[0] droppedJobsSLA 0
scalar FogNoLB.fog[91].server[0] droppedJobsTotal 77
scalar FogNoLB.fog[92].dispatcher localJobs 5796
scalar FogNoLB.fog[92].dispatcher remoteJobs 0
scalar FogNoLB.fog[92].dispatcher probeQueries 0
scalar FogNoLB.fog[92].dispatcher probeAnswers 0
scalar FogNoLB.fog[92].dispatcher droppedJobsSLA 0
scalar FogNoLB.fog[92].dispatcher jobs_class_1 5796
scalar FogNoLB.fog[92].dispatcher localJobs_class_1 5796
scalar FogNoLB.fog[92].server[0] rho 0.88696616888046
scalar FogNoLB.fog[92].server[0] congestionRatio 0
scalar FogNoLB.fog[92].server[0] totalJobs 5796
scalar FogNoLB.fog[92].server[0] droppedJobsQueue 58
scalar FogNoLB.fog[92].server[0] droppedJobsTimout 5
scalar FogNoLB.fog[92].server[0] droppedJobsSLA 0
scalar FogNoLB.fog[92].server[0] droppedJobsTotal 63
scalar FogNoLB.fog[93].dispatcher localJobs 5785
scalar FogNoLB.fog[93].dispatcher remoteJobs 0
scalar FogNoLB.fog[93].dispatcher probeQueries 0
scalar FogNoLB.fog[93].dispatcher probeAnswers 0
scalar FogNoLB.fog[93].dispatcher droppedJobsSLA 0
scalar FogNoLB.fog[93].dispatcher jobs_class_1 5785
scalar FogNoLB.fog[93].dispatcher localJobs_class_1 5785
scalar FogNoLB.fog[93].server[0] rho 0.8801754117012
scalar FogNoLB.fog[93].server[0] congestionRatio 0
scalar FogNoLB.fog[93].server[0] totalJobs 5785
scalar FogNoLB.fog[93].server[0] droppedJobsQueue 90
scalar FogNoLB.fog[93].server[0] droppedJobsTimout 12
scalar FogNoLB.fog[93].server[0] droppedJobsSLA 0
scalar FogNoLB.fog[93].server[0] droppedJobsTotal 102
scalar FogNoLB.fog[94].dispatcher localJobs 5816
scalar FogNoLB.fog[94].dispatcher remoteJobs 0
scalar FogNoLB.fog[94].dispatcher probeQueries 0
scalar FogNoLB.fog[94].dispatcher probeAnswers 0
scalar FogNoLB.fog[94].dispatcher droppedJobsSLA 0
scalar FogNoLB.fog[94].dispatcher jobs_class_1 5816
scalar FogNoLB.fog[94].dispatcher localJobs_class_1 5816
scalar FogNoLB.fog[94].server[0] rho 0.88280320167542
scalar FogNoLB.fog[94].server[0] congestionRatio 0
scalar FogNoLB.fog[94].server[0] totalJobs 5816
scalar FogNoLB.fog[94].server[0] droppedJobsQueue 106
scalar FogNoLB.fog[94].server[0] droppedJobsTimout 1
scalar FogNoLB.fog[94].server[0] droppedJobsSLA 0
scalar FogNoLB.fog[94].server[0] droppedJobsTotal 107
scalar FogNoLB.fog[95].dispatcher localJobs 5861
scalar FogNoLB.fog[95].dispatcher remoteJobs 0
scalar FogNoLB.fog[95].dispatcher probeQueries 0
scalar FogNoLB.fog[95].dispatcher probeAnswers 0
scalar FogNoLB.fog[95].dispatcher droppedJobsSLA 0
scalar FogNoLB.fog[95].dispatcher jobs_class_1 5861
scalar FogNoLB.fog[95].dispatcher localJobs_class_1 5861
scalar FogNoLB.fog[95].server[0] rho 0.88857734203339
scalar FogNoLB.fog[95].server[0] congestionRatio 0
scalar FogNoLB.fog[95].server[0] totalJobs 5861
scalar FogNoLB.fog[95].server[0] droppedJobsQueue 109
scalar FogNoLB.fog[95].server[0] droppedJobsTimout 8
scalar FogNoLB.fog[95].server[0] droppedJobsSLA 0
scalar FogNoLB.fog[95].server[0] droppedJobsTotal 117
scalar FogNoLB.fog[96].dispatcher localJobs 5898
scalar FogNoLB.fog[96].dispatcher remoteJobs 0
scalar FogNoLB.fog[96].dispatcher probeQueries 0
scalar FogNoLB.fog[96].dispatcher probeAnswers 0
scalar FogNoLB.fog[96].dispatcher droppedJobsSLA 0
scalar FogNoLB.fog[96].dispatcher jobs_class_1 5898
scalar FogNoLB.fog[96].dispatcher localJobs_class_1 5898
scalar FogNoLB.fog[96].server[0] rho 0.89398646354675
scalar FogNoLB.fog[96].server[0] congestionRatio 0
scalar FogNoLB.fog[96].server[0] totalJobs 5898
scalar FogNoLB.fog[96].server[0] droppedJobsQueue 113
scalar FogNoLB.fog[96].server[0] droppedJobsTimout 6
scalar FogNoLB.fog[96].server[0] droppedJobsSLA 0
scalar FogNoLB.fog[96].server[0] droppedJobsTotal 119
scalar FogNoLB.fog[97].dispatcher localJobs 5796
scalar FogNoLB.fog[97].dispatcher remoteJobs 0
scalar FogNoLB.fog[97].dispatcher probeQueries 0
scalar FogNoLB.fog[97].dispatcher probeAnswers 0
scalar FogNoLB.fog[97].dispatcher droppedJobsSLA 0
scalar FogNoLB.fog[97].dispatcher jobs_class_1 5796
scalar FogNoLB.fog[97].dispatcher localJobs_class_1 5796
scalar FogNoLB.fog[97].server[0] rho 0.88219088315964
scalar FogNoLB.fog[97].server[0] congestionRatio 0
scalar FogNoLB.fog[97].server[0] totalJobs 5796
scalar FogNoLB.fog[97].server[0] droppedJobsQueue 89
scalar FogNoLB.fog[97].server[0] droppedJobsTimout 5
scalar FogNoLB.fog[97].server[0] droppedJobsSLA 0
scalar FogNoLB.fog[97].server[0] droppedJobsTotal 94
scalar FogNoLB.fog[98].dispatcher localJobs 5720
scalar FogNoLB.fog[98].dispatcher remoteJobs 0
scalar FogNoLB.fog[98].dispatcher probeQueries 0
scalar FogNoLB.fog[98].dispatcher probeAnswers 0
scalar FogNoLB.fog[98].dispatcher droppedJobsSLA 0
scalar FogNoLB.fog[98].dispatcher jobs_class_1 5720
scalar FogNoLB.fog[98].dispatcher localJobs_class_1 5720
scalar FogNoLB.fog[98].server[0] rho 0.87390005588531
scalar FogNoLB.fog[98].server[0] congestionRatio 0
scalar FogNoLB.fog[98].server[0] totalJobs 5720
scalar FogNoLB.fog[98].server[0] droppedJobsQueue 68
scalar FogNoLB.fog[98].server[0] droppedJobsTimout 5
scalar FogNoLB.fog[98].server[0] droppedJobsSLA 0
scalar FogNoLB.fog[98].server[0] droppedJobsTotal 73
scalar FogNoLB.fog[99].dispatcher localJobs 5765
scalar FogNoLB.fog[99].dispatcher remoteJobs 0
scalar FogNoLB.fog[99].dispatcher probeQueries 0
scalar FogNoLB.fog[99].dispatcher probeAnswers 0
scalar FogNoLB.fog[99].dispatcher droppedJobsSLA 0
scalar FogNoLB.fog[99].dispatcher jobs_class_1 5765
scalar FogNoLB.fog[99].dispatcher localJobs_class_1 5765
scalar FogNoLB.fog[99].server[0] rho 0.87621104717255
scalar FogNoLB.fog[99].server[0] congestionRatio 0
scalar FogNoLB.fog[99].server[0] totalJobs 5765
scalar FogNoLB.fog[99].server[0] droppedJobsQueue 100
scalar FogNoLB.fog[99].server[0] droppedJobsTimout 9
scalar FogNoLB.fog[99].server[0] droppedJobsSLA 0
scalar FogNoLB.fog[99].server[0] droppedJobsTotal 109
scalar FogNoLB.sink avg_responseTime_1 6.481800691878
scalar FogNoLB.sink p90_responseTime_1 1.513868469115
scalar FogNoLB.sink med_responseTime_1 1.513868469115
scalar FogNoLB.sink avg_delayTime_1 0
scalar FogNoLB.sink p90_delayTime_1 0
scalar FogNoLB.sink med_delayTime_1 0
scalar FogNoLB.sink avg_queuingTime_1 4.8118685565892
scalar FogNoLB.sink p90_queuingTime_1 0
scalar FogNoLB.sink med_queuingTime_1 0
scalar FogNoLB.sink avg_serviceTime_1 1.6699321352889
scalar FogNoLB.sink p90_serviceTime_1 1.50469310751
scalar FogNoLB.sink med_serviceTime_1 1.50469310751
scalar FogNoLB.sink avg_balancerTime_1 0
scalar FogNoLB.sink p90_balancerTime_1 0
scalar FogNoLB.sink med_balancerTime_1 0
scalar FogNoLB.sink avg_balancerCount_1 1
scalar FogNoLB.sink p90_balancerCount_1 1
scalar FogNoLB.sink med_balancerCount_1 1

