version 2
run Fog-mul_1-rho_09-thr_9-2-20190711-22:51:57-64159
attr configname Fog-mul_1-rho_09-thr_9
attr datetime 20190711-22:51:57
attr experiment Fog-mul_1-rho_09-thr_9
attr inifile FogQueueLen.ini
attr iterationvars ""
attr iterationvarsf ""
attr measurement ""
attr network FogNoLB
attr processid 64159
attr repetition 2
attr replication #2
attr resultdir results
attr runnumber 2
attr seedset 2
param FogNoLB.proctimeMul 1
param FogNoLB.rho 0.9
param FogNoLB.fog[*].server[*].capacity 9
param FogNoLB.nSources 100
param FogNoLB.rho 0.9
param FogNoLB.proctimeMul 1.0
param FogNoLB.source[*].appId 1
param FogNoLB.fog[*].nServers 1
param FogNoLB.fog[*].dispatcher.fanOut 1
param FogNoLB.fog[*].server[*].timeSlice -1s
param FogNoLB.fog[*].server[*].capacity 5
param FogNoLB.fog[*].server[*].fifo true
param FogNoLB.fog[*].server[*].maxServiceTime -1s

scalar FogNoLB.fog[0].dispatcher localJobs 5772
scalar FogNoLB.fog[0].dispatcher remoteJobs 0
scalar FogNoLB.fog[0].dispatcher probeQueries 0
scalar FogNoLB.fog[0].dispatcher probeAnswers 0
scalar FogNoLB.fog[0].dispatcher droppedJobsSLA 0
scalar FogNoLB.fog[0].dispatcher jobs_class_1 5772
scalar FogNoLB.fog[0].dispatcher localJobs_class_1 5772
scalar FogNoLB.fog[0].server[0] rho 0.88558715581894
scalar FogNoLB.fog[0].server[0] congestionRatio 0
scalar FogNoLB.fog[0].server[0] totalJobs 5772
scalar FogNoLB.fog[0].server[0] droppedJobsQueue 42
scalar FogNoLB.fog[0].server[0] droppedJobsTimout 2
scalar FogNoLB.fog[0].server[0] droppedJobsSLA 0
scalar FogNoLB.fog[0].server[0] droppedJobsTotal 44
scalar FogNoLB.fog[1].dispatcher localJobs 5780
scalar FogNoLB.fog[1].dispatcher remoteJobs 0
scalar FogNoLB.fog[1].dispatcher probeQueries 0
scalar FogNoLB.fog[1].dispatcher probeAnswers 0
scalar FogNoLB.fog[1].dispatcher droppedJobsSLA 0
scalar FogNoLB.fog[1].dispatcher jobs_class_1 5780
scalar FogNoLB.fog[1].dispatcher localJobs_class_1 5780
scalar FogNoLB.fog[1].server[0] rho 0.88055944442749
scalar FogNoLB.fog[1].server[0] congestionRatio 0
scalar FogNoLB.fog[1].server[0] totalJobs 5780
scalar FogNoLB.fog[1].server[0] droppedJobsQueue 80
scalar FogNoLB.fog[1].server[0] droppedJobsTimout 6
scalar FogNoLB.fog[1].server[0] droppedJobsSLA 0
scalar FogNoLB.fog[1].server[0] droppedJobsTotal 86
scalar FogNoLB.fog[2].dispatcher localJobs 5860
scalar FogNoLB.fog[2].dispatcher remoteJobs 0
scalar FogNoLB.fog[2].dispatcher probeQueries 0
scalar FogNoLB.fog[2].dispatcher probeAnswers 0
scalar FogNoLB.fog[2].dispatcher droppedJobsSLA 0
scalar FogNoLB.fog[2].dispatcher jobs_class_1 5860
scalar FogNoLB.fog[2].dispatcher localJobs_class_1 5860
scalar FogNoLB.fog[2].server[0] rho 0.88819515705109
scalar FogNoLB.fog[2].server[0] congestionRatio 0
scalar FogNoLB.fog[2].server[0] totalJobs 5860
scalar FogNoLB.fog[2].server[0] droppedJobsQueue 110
scalar FogNoLB.fog[2].server[0] droppedJobsTimout 8
scalar FogNoLB.fog[2].server[0] droppedJobsSLA 0
scalar FogNoLB.fog[2].server[0] droppedJobsTotal 118
scalar FogNoLB.fog[3].dispatcher localJobs 5726
scalar FogNoLB.fog[3].dispatcher remoteJobs 0
scalar FogNoLB.fog[3].dispatcher probeQueries 0
scalar FogNoLB.fog[3].dispatcher probeAnswers 0
scalar FogNoLB.fog[3].dispatcher droppedJobsSLA 0
scalar FogNoLB.fog[3].dispatcher jobs_class_1 5726
scalar FogNoLB.fog[3].dispatcher localJobs_class_1 5726
scalar FogNoLB.fog[3].server[0] rho 0.87185853719711
scalar FogNoLB.fog[3].server[0] congestionRatio 0
scalar FogNoLB.fog[3].server[0] totalJobs 5726
scalar FogNoLB.fog[3].server[0] droppedJobsQueue 81
scalar FogNoLB.fog[3].server[0] droppedJobsTimout 4
scalar FogNoLB.fog[3].server[0] droppedJobsSLA 0
scalar FogNoLB.fog[3].server[0] droppedJobsTotal 85
scalar FogNoLB.fog[4].dispatcher localJobs 5764
scalar FogNoLB.fog[4].dispatcher remoteJobs 0
scalar FogNoLB.fog[4].dispatcher probeQueries 0
scalar FogNoLB.fog[4].dispatcher probeAnswers 0
scalar FogNoLB.fog[4].dispatcher droppedJobsSLA 0
scalar FogNoLB.fog[4].dispatcher jobs_class_1 5764
scalar FogNoLB.fog[4].dispatcher localJobs_class_1 5764
scalar FogNoLB.fog[4].server[0] rho 0.87539803981781
scalar FogNoLB.fog[4].server[0] congestionRatio 0
scalar FogNoLB.fog[4].server[0] totalJobs 5764
scalar FogNoLB.fog[4].server[0] droppedJobsQueue 104
scalar FogNoLB.fog[4].server[0] droppedJobsTimout 5
scalar FogNoLB.fog[4].server[0] droppedJobsSLA 0
scalar FogNoLB.fog[4].server[0] droppedJobsTotal 109
scalar FogNoLB.fog[5].dispatcher localJobs 5827
scalar FogNoLB.fog[5].dispatcher remoteJobs 0
scalar FogNoLB.fog[5].dispatcher probeQueries 0
scalar FogNoLB.fog[5].dispatcher probeAnswers 0
scalar FogNoLB.fog[5].dispatcher droppedJobsSLA 0
scalar FogNoLB.fog[5].dispatcher jobs_class_1 5827
scalar FogNoLB.fog[5].dispatcher localJobs_class_1 5827
scalar FogNoLB.fog[5].server[0] rho 0.88433480262756
scalar FogNoLB.fog[5].server[0] congestionRatio 0
scalar FogNoLB.fog[5].server[0] totalJobs 5827
scalar FogNoLB.fog[5].server[0] droppedJobsQueue 109
scalar FogNoLB.fog[5].server[0] droppedJobsTimout 2
scalar FogNoLB.fog[5].server[0] droppedJobsSLA 0
scalar FogNoLB.fog[5].server[0] droppedJobsTotal 111
scalar FogNoLB.fog[6].dispatcher localJobs 5731
scalar FogNoLB.fog[6].dispatcher remoteJobs 0
scalar FogNoLB.fog[6].dispatcher probeQueries 0
scalar FogNoLB.fog[6].dispatcher probeAnswers 0
scalar FogNoLB.fog[6].dispatcher droppedJobsSLA 0
scalar FogNoLB.fog[6].dispatcher jobs_class_1 5731
scalar FogNoLB.fog[6].dispatcher localJobs_class_1 5731
scalar FogNoLB.fog[6].server[0] rho 0.87143337726593
scalar FogNoLB.fog[6].server[0] congestionRatio 0
scalar FogNoLB.fog[6].server[0] totalJobs 5731
scalar FogNoLB.fog[6].server[0] droppedJobsQueue 94
scalar FogNoLB.fog[6].server[0] droppedJobsTimout 3
scalar FogNoLB.fog[6].server[0] droppedJobsSLA 0
scalar FogNoLB.fog[6].server[0] droppedJobsTotal 97
scalar FogNoLB.fog[7].dispatcher localJobs 5833
scalar FogNoLB.fog[7].dispatcher remoteJobs 0
scalar FogNoLB.fog[7].dispatcher probeQueries 0
scalar FogNoLB.fog[7].dispatcher probeAnswers 0
scalar FogNoLB.fog[7].dispatcher droppedJobsSLA 0
scalar FogNoLB.fog[7].dispatcher jobs_class_1 5833
scalar FogNoLB.fog[7].dispatcher localJobs_class_1 5833
scalar FogNoLB.fog[7].server[0] rho 0.88060033321381
scalar FogNoLB.fog[7].server[0] congestionRatio 0
scalar FogNoLB.fog[7].server[0] totalJobs 5833
scalar FogNoLB.fog[7].server[0] droppedJobsQueue 131
scalar FogNoLB.fog[7].server[0] droppedJobsTimout 6
scalar FogNoLB.fog[7].server[0] droppedJobsSLA 0
scalar FogNoLB.fog[7].server[0] droppedJobsTotal 137
scalar FogNoLB.fog[8].dispatcher localJobs 5762
scalar FogNoLB.fog[8].dispatcher remoteJobs 0
scalar FogNoLB.fog[8].dispatcher probeQueries 0
scalar FogNoLB.fog[8].dispatcher probeAnswers 0
scalar FogNoLB.fog[8].dispatcher droppedJobsSLA 0
scalar FogNoLB.fog[8].dispatcher jobs_class_1 5762
scalar FogNoLB.fog[8].dispatcher localJobs_class_1 5762
scalar FogNoLB.fog[8].server[0] rho 0.88186520338058
scalar FogNoLB.fog[8].server[0] congestionRatio 0
scalar FogNoLB.fog[8].server[0] totalJobs 5762
scalar FogNoLB.fog[8].server[0] droppedJobsQueue 61
scalar FogNoLB.fog[8].server[0] droppedJobsTimout 4
scalar FogNoLB.fog[8].server[0] droppedJobsSLA 0
scalar FogNoLB.fog[8].server[0] droppedJobsTotal 65
scalar FogNoLB.fog[9].dispatcher localJobs 5928
scalar FogNoLB.fog[9].dispatcher remoteJobs 0
scalar FogNoLB.fog[9].dispatcher probeQueries 0
scalar FogNoLB.fog[9].dispatcher probeAnswers 0
scalar FogNoLB.fog[9].dispatcher droppedJobsSLA 0
scalar FogNoLB.fog[9].dispatcher jobs_class_1 5928
scalar FogNoLB.fog[9].dispatcher localJobs_class_1 5928
scalar FogNoLB.fog[9].server[0] rho 0.89527636766434
scalar FogNoLB.fog[9].server[0] congestionRatio 0
scalar FogNoLB.fog[9].server[0] totalJobs 5928
scalar FogNoLB.fog[9].server[0] droppedJobsQueue 133
scalar FogNoLB.fog[9].server[0] droppedJobsTimout 8
scalar FogNoLB.fog[9].server[0] droppedJobsSLA 0
scalar FogNoLB.fog[9].server[0] droppedJobsTotal 141
scalar FogNoLB.fog[10].dispatcher localJobs 5914
scalar FogNoLB.fog[10].dispatcher remoteJobs 0
scalar FogNoLB.fog[10].dispatcher probeQueries 0
scalar FogNoLB.fog[10].dispatcher probeAnswers 0
scalar FogNoLB.fog[10].dispatcher droppedJobsSLA 0
scalar FogNoLB.fog[10].dispatcher jobs_class_1 5914
scalar FogNoLB.fog[10].dispatcher localJobs_class_1 5914
scalar FogNoLB.fog[10].server[0] rho 0.89383858442307
scalar FogNoLB.fog[10].server[0] congestionRatio 0
scalar FogNoLB.fog[10].server[0] totalJobs 5914
scalar FogNoLB.fog[10].server[0] droppedJobsQueue 125
scalar FogNoLB.fog[10].server[0] droppedJobsTimout 5
scalar FogNoLB.fog[10].server[0] droppedJobsSLA 0
scalar FogNoLB.fog[10].server[0] droppedJobsTotal 130
scalar FogNoLB.fog[11].dispatcher localJobs 5823
scalar FogNoLB.fog[11].dispatcher remoteJobs 0
scalar FogNoLB.fog[11].dispatcher probeQueries 0
scalar FogNoLB.fog[11].dispatcher probeAnswers 0
scalar FogNoLB.fog[11].dispatcher droppedJobsSLA 0
scalar FogNoLB.fog[11].dispatcher jobs_class_1 5823
scalar FogNoLB.fog[11].dispatcher localJobs_class_1 5823
scalar FogNoLB.fog[11].server[0] rho 0.8782525062561
scalar FogNoLB.fog[11].server[0] congestionRatio 0
scalar FogNoLB.fog[11].server[0] totalJobs 5823
scalar FogNoLB.fog[11].server[0] droppedJobsQueue 143
scalar FogNoLB.fog[11].server[0] droppedJobsTimout 10
scalar FogNoLB.fog[11].server[0] droppedJobsSLA 0
scalar FogNoLB.fog[11].server[0] droppedJobsTotal 153
scalar FogNoLB.fog[12].dispatcher localJobs 5790
scalar FogNoLB.fog[12].dispatcher remoteJobs 0
scalar FogNoLB.fog[12].dispatcher probeQueries 0
scalar FogNoLB.fog[12].dispatcher probeAnswers 0
scalar FogNoLB.fog[12].dispatcher droppedJobsSLA 0
scalar FogNoLB.fog[12].dispatcher jobs_class_1 5790
scalar FogNoLB.fog[12].dispatcher localJobs_class_1 5790
scalar FogNoLB.fog[12].server[0] rho 0.88081765174866
scalar FogNoLB.fog[12].server[0] congestionRatio 0
scalar FogNoLB.fog[12].server[0] totalJobs 5790
scalar FogNoLB.fog[12].server[0] droppedJobsQueue 85
scalar FogNoLB.fog[12].server[0] droppedJobsTimout 5
scalar FogNoLB.fog[12].server[0] droppedJobsSLA 0
scalar FogNoLB.fog[12].server[0] droppedJobsTotal 90
scalar FogNoLB.fog[13].dispatcher localJobs 5822
scalar FogNoLB.fog[13].dispatcher remoteJobs 0
scalar FogNoLB.fog[13].dispatcher probeQueries 0
scalar FogNoLB.fog[13].dispatcher probeAnswers 0
scalar FogNoLB.fog[13].dispatcher droppedJobsSLA 0
scalar FogNoLB.fog[13].dispatcher jobs_class_1 5822
scalar FogNoLB.fog[13].dispatcher localJobs_class_1 5822
scalar FogNoLB.fog[13].server[0] rho 0.88698434829712
scalar FogNoLB.fog[13].server[0] congestionRatio 0
scalar FogNoLB.fog[13].server[0] totalJobs 5822
scalar FogNoLB.fog[13].server[0] droppedJobsQueue 81
scalar FogNoLB.fog[13].server[0] droppedJobsTimout 6
scalar FogNoLB.fog[13].server[0] droppedJobsSLA 0
scalar FogNoLB.fog[13].server[0] droppedJobsTotal 87
scalar FogNoLB.fog[14].dispatcher localJobs 5931
scalar FogNoLB.fog[14].dispatcher remoteJobs 0
scalar FogNoLB.fog[14].dispatcher probeQueries 0
scalar FogNoLB.fog[14].dispatcher probeAnswers 0
scalar FogNoLB.fog[14].dispatcher droppedJobsSLA 0
scalar FogNoLB.fog[14].dispatcher jobs_class_1 5931
scalar FogNoLB.fog[14].dispatcher localJobs_class_1 5931
scalar FogNoLB.fog[14].server[0] rho 0.89833039045334
scalar FogNoLB.fog[14].server[0] congestionRatio 0
scalar FogNoLB.fog[14].server[0] totalJobs 5931
scalar FogNoLB.fog[14].server[0] droppedJobsQueue 113
scalar FogNoLB.fog[14].server[0] droppedJobsTimout 7
scalar FogNoLB.fog[14].server[0] droppedJobsSLA 0
scalar FogNoLB.fog[14].server[0] droppedJobsTotal 120
scalar FogNoLB.fog[15].dispatcher localJobs 5864
scalar FogNoLB.fog[15].dispatcher remoteJobs 0
scalar FogNoLB.fog[15].dispatcher probeQueries 0
scalar FogNoLB.fog[15].dispatcher probeAnswers 0
scalar FogNoLB.fog[15].dispatcher droppedJobsSLA 0
scalar FogNoLB.fog[15].dispatcher jobs_class_1 5864
scalar FogNoLB.fog[15].dispatcher localJobs_class_1 5864
scalar FogNoLB.fog[15].server[0] rho 0.8907116651535
scalar FogNoLB.fog[15].server[0] congestionRatio 0
scalar FogNoLB.fog[15].server[0] totalJobs 5864
scalar FogNoLB.fog[15].server[0] droppedJobsQueue 100
scalar FogNoLB.fog[15].server[0] droppedJobsTimout 3
scalar FogNoLB.fog[15].server[0] droppedJobsSLA 0
scalar FogNoLB.fog[15].server[0] droppedJobsTotal 103
scalar FogNoLB.fog[16].dispatcher localJobs 5944
scalar FogNoLB.fog[16].dispatcher remoteJobs 0
scalar FogNoLB.fog[16].dispatcher probeQueries 0
scalar FogNoLB.fog[16].dispatcher probeAnswers 0
scalar FogNoLB.fog[16].dispatcher droppedJobsSLA 0
scalar FogNoLB.fog[16].dispatcher jobs_class_1 5944
scalar FogNoLB.fog[16].dispatcher localJobs_class_1 5944
scalar FogNoLB.fog[16].server[0] rho 0.90062022209167
scalar FogNoLB.fog[16].server[0] congestionRatio 0
scalar FogNoLB.fog[16].server[0] totalJobs 5944
scalar FogNoLB.fog[16].server[0] droppedJobsQueue 114
scalar FogNoLB.fog[16].server[0] droppedJobsTimout 8
scalar FogNoLB.fog[16].server[0] droppedJobsSLA 0
scalar FogNoLB.fog[16].server[0] droppedJobsTotal 122
scalar FogNoLB.fog[17].dispatcher localJobs 5796
scalar FogNoLB.fog[17].dispatcher remoteJobs 0
scalar FogNoLB.fog[17].dispatcher probeQueries 0
scalar FogNoLB.fog[17].dispatcher probeAnswers 0
scalar FogNoLB.fog[17].dispatcher droppedJobsSLA 0
scalar FogNoLB.fog[17].dispatcher jobs_class_1 5796
scalar FogNoLB.fog[17].dispatcher localJobs_class_1 5796
scalar FogNoLB.fog[17].server[0] rho 0.88152974843979
scalar FogNoLB.fog[17].server[0] congestionRatio 0
scalar FogNoLB.fog[17].server[0] totalJobs 5796
scalar FogNoLB.fog[17].server[0] droppedJobsQueue 93
scalar FogNoLB.fog[17].server[0] droppedJobsTimout 4
scalar FogNoLB.fog[17].server[0] droppedJobsSLA 0
scalar FogNoLB.fog[17].server[0] droppedJobsTotal 97
scalar FogNoLB.fog[18].dispatcher localJobs 5948
scalar FogNoLB.fog[18].dispatcher remoteJobs 0
scalar FogNoLB.fog[18].dispatcher probeQueries 0
scalar FogNoLB.fog[18].dispatcher probeAnswers 0
scalar FogNoLB.fog[18].dispatcher droppedJobsSLA 0
scalar FogNoLB.fog[18].dispatcher jobs_class_1 5948
scalar FogNoLB.fog[18].dispatcher localJobs_class_1 5948
scalar FogNoLB.fog[18].server[0] rho 0.89954400062561
scalar FogNoLB.fog[18].server[0] congestionRatio 0
scalar FogNoLB.fog[18].server[0] totalJobs 5948
scalar FogNoLB.fog[18].server[0] droppedJobsQueue 127
scalar FogNoLB.fog[18].server[0] droppedJobsTimout 6
scalar FogNoLB.fog[18].server[0] droppedJobsSLA 0
scalar FogNoLB.fog[18].server[0] droppedJobsTotal 133
scalar FogNoLB.fog[19].dispatcher localJobs 5962
scalar FogNoLB.fog[19].dispatcher remoteJobs 0
scalar FogNoLB.fog[19].dispatcher probeQueries 0
scalar FogNoLB.fog[19].dispatcher probeAnswers 0
scalar FogNoLB.fog[19].dispatcher droppedJobsSLA 0
scalar FogNoLB.fog[19].dispatcher jobs_class_1 5962
scalar FogNoLB.fog[19].dispatcher localJobs_class_1 5962
scalar FogNoLB.fog[19].server[0] rho 0.89568740129471
scalar FogNoLB.fog[19].server[0] congestionRatio 0
scalar FogNoLB.fog[19].server[0] totalJobs 5962
scalar FogNoLB.fog[19].server[0] droppedJobsQueue 165
scalar FogNoLB.fog[19].server[0] droppedJobsTimout 9
scalar FogNoLB.fog[19].server[0] droppedJobsSLA 0
scalar FogNoLB.fog[19].server[0] droppedJobsTotal 174
scalar FogNoLB.fog[20].dispatcher localJobs 5785
scalar FogNoLB.fog[20].dispatcher remoteJobs 0
scalar FogNoLB.fog[20].dispatcher probeQueries 0
scalar FogNoLB.fog[20].dispatcher probeAnswers 0
scalar FogNoLB.fog[20].dispatcher droppedJobsSLA 0
scalar FogNoLB.fog[20].dispatcher jobs_class_1 5785
scalar FogNoLB.fog[20].dispatcher localJobs_class_1 5785
scalar FogNoLB.fog[20].server[0] rho 0.88157075643539
scalar FogNoLB.fog[20].server[0] congestionRatio 0
scalar FogNoLB.fog[20].server[0] totalJobs 5785
scalar FogNoLB.fog[20].server[0] droppedJobsQueue 84
scalar FogNoLB.fog[20].server[0] droppedJobsTimout 5
scalar FogNoLB.fog[20].server[0] droppedJobsSLA 0
scalar FogNoLB.fog[20].server[0] droppedJobsTotal 89
scalar FogNoLB.fog[21].dispatcher localJobs 5860
scalar FogNoLB.fog[21].dispatcher remoteJobs 0
scalar FogNoLB.fog[21].dispatcher probeQueries 0
scalar FogNoLB.fog[21].dispatcher probeAnswers 0
scalar FogNoLB.fog[21].dispatcher droppedJobsSLA 0
scalar FogNoLB.fog[21].dispatcher jobs_class_1 5860
scalar FogNoLB.fog[21].dispatcher localJobs_class_1 5860
scalar FogNoLB.fog[21].server[0] rho 0.88637816905975
scalar FogNoLB.fog[21].server[0] congestionRatio 0
scalar FogNoLB.fog[21].server[0] totalJobs 5860
scalar FogNoLB.fog[21].server[0] droppedJobsQueue 126
scalar FogNoLB.fog[21].server[0] droppedJobsTimout 10
scalar FogNoLB.fog[21].server[0] droppedJobsSLA 0
scalar FogNoLB.fog[21].server[0] droppedJobsTotal 136
scalar FogNoLB.fog[22].dispatcher localJobs 5788
scalar FogNoLB.fog[22].dispatcher remoteJobs 0
scalar FogNoLB.fog[22].dispatcher probeQueries 0
scalar FogNoLB.fog[22].dispatcher probeAnswers 0
scalar FogNoLB.fog[22].dispatcher droppedJobsSLA 0
scalar FogNoLB.fog[22].dispatcher jobs_class_1 5788
scalar FogNoLB.fog[22].dispatcher localJobs_class_1 5788
scalar FogNoLB.fog[22].server[0] rho 0.88113415241241
scalar FogNoLB.fog[22].server[0] congestionRatio 0
scalar FogNoLB.fog[22].server[0] totalJobs 5788
scalar FogNoLB.fog[22].server[0] droppedJobsQueue 90
scalar FogNoLB.fog[22].server[0] droppedJobsTimout 12
scalar FogNoLB.fog[22].server[0] droppedJobsSLA 0
scalar FogNoLB.fog[22].server[0] droppedJobsTotal 102
scalar FogNoLB.fog[23].dispatcher localJobs 5650
scalar FogNoLB.fog[23].dispatcher remoteJobs 0
scalar FogNoLB.fog[23].dispatcher probeQueries 0
scalar FogNoLB.fog[23].dispatcher probeAnswers 0
scalar FogNoLB.fog[23].dispatcher droppedJobsSLA 0
scalar FogNoLB.fog[23].dispatcher jobs_class_1 5650
scalar FogNoLB.fog[23].dispatcher localJobs_class_1 5650
scalar FogNoLB.fog[23].server[0] rho 0.863146007061
scalar FogNoLB.fog[23].server[0] congestionRatio 0
scalar FogNoLB.fog[23].server[0] totalJobs 5650
scalar FogNoLB.fog[23].server[0] droppedJobsQueue 67
scalar FogNoLB.fog[23].server[0] droppedJobsTimout 1
scalar FogNoLB.fog[23].server[0] droppedJobsSLA 0
scalar FogNoLB.fog[23].server[0] droppedJobsTotal 68
scalar FogNoLB.fog[24].dispatcher localJobs 5890
scalar FogNoLB.fog[24].dispatcher remoteJobs 0
scalar FogNoLB.fog[24].dispatcher probeQueries 0
scalar FogNoLB.fog[24].dispatcher probeAnswers 0
scalar FogNoLB.fog[24].dispatcher droppedJobsSLA 0
scalar FogNoLB.fog[24].dispatcher jobs_class_1 5890
scalar FogNoLB.fog[24].dispatcher localJobs_class_1 5890
scalar FogNoLB.fog[24].server[0] rho 0.89484798908234
scalar FogNoLB.fog[24].server[0] congestionRatio 0
scalar FogNoLB.fog[24].server[0] totalJobs 5890
scalar FogNoLB.fog[24].server[0] droppedJobsQueue 101
scalar FogNoLB.fog[24].server[0] droppedJobsTimout 7
scalar FogNoLB.fog[24].server[0] droppedJobsSLA 0
scalar FogNoLB.fog[24].server[0] droppedJobsTotal 108
scalar FogNoLB.fog[25].dispatcher localJobs 5985
scalar FogNoLB.fog[25].dispatcher remoteJobs 0
scalar FogNoLB.fog[25].dispatcher probeQueries 0
scalar FogNoLB.fog[25].dispatcher probeAnswers 0
scalar FogNoLB.fog[25].dispatcher droppedJobsSLA 0
scalar FogNoLB.fog[25].dispatcher jobs_class_1 5985
scalar FogNoLB.fog[25].dispatcher localJobs_class_1 5985
scalar FogNoLB.fog[25].server[0] rho 0.90305459499359
scalar FogNoLB.fog[25].server[0] congestionRatio 0
scalar FogNoLB.fog[25].server[0] totalJobs 5985
scalar FogNoLB.fog[25].server[0] droppedJobsQueue 140
scalar FogNoLB.fog[25].server[0] droppedJobsTimout 4
scalar FogNoLB.fog[25].server[0] droppedJobsSLA 0
scalar FogNoLB.fog[25].server[0] droppedJobsTotal 144
scalar FogNoLB.fog[26].dispatcher localJobs 5975
scalar FogNoLB.fog[26].dispatcher remoteJobs 0
scalar FogNoLB.fog[26].dispatcher probeQueries 0
scalar FogNoLB.fog[26].dispatcher probeAnswers 0
scalar FogNoLB.fog[26].dispatcher droppedJobsSLA 0
scalar FogNoLB.fog[26].dispatcher jobs_class_1 5975
scalar FogNoLB.fog[26].dispatcher localJobs_class_1 5975
scalar FogNoLB.fog[26].server[0] rho 0.90316027402878
scalar FogNoLB.fog[26].server[0] congestionRatio 0
scalar FogNoLB.fog[26].server[0] totalJobs 5975
scalar FogNoLB.fog[26].server[0] droppedJobsQueue 136
scalar FogNoLB.fog[26].server[0] droppedJobsTimout 2
scalar FogNoLB.fog[26].server[0] droppedJobsSLA 0
scalar FogNoLB.fog[26].server[0] droppedJobsTotal 138
scalar FogNoLB.fog[27].dispatcher localJobs 5752
scalar FogNoLB.fog[27].dispatcher remoteJobs 0
scalar FogNoLB.fog[27].dispatcher probeQueries 0
scalar FogNoLB.fog[27].dispatcher probeAnswers 0
scalar FogNoLB.fog[27].dispatcher droppedJobsSLA 0
scalar FogNoLB.fog[27].dispatcher jobs_class_1 5752
scalar FogNoLB.fog[27].dispatcher localJobs_class_1 5752
scalar FogNoLB.fog[27].server[0] rho 0.87610393762589
scalar FogNoLB.fog[27].server[0] congestionRatio 0
scalar FogNoLB.fog[27].server[0] totalJobs 5752
scalar FogNoLB.fog[27].server[0] droppedJobsQueue 86
scalar FogNoLB.fog[27].server[0] droppedJobsTimout 5
scalar FogNoLB.fog[27].server[0] droppedJobsSLA 0
scalar FogNoLB.fog[27].server[0] droppedJobsTotal 91
scalar FogNoLB.fog[28].dispatcher localJobs 5850
scalar FogNoLB.fog[28].dispatcher remoteJobs 0
scalar FogNoLB.fog[28].dispatcher probeQueries 0
scalar FogNoLB.fog[28].dispatcher probeAnswers 0
scalar FogNoLB.fog[28].dispatcher droppedJobsSLA 0
scalar FogNoLB.fog[28].dispatcher jobs_class_1 5850
scalar FogNoLB.fog[28].dispatcher localJobs_class_1 5850
scalar FogNoLB.fog[28].server[0] rho 0.88497388362885
scalar FogNoLB.fog[28].server[0] congestionRatio 0
scalar FogNoLB.fog[28].server[0] totalJobs 5850
scalar FogNoLB.fog[28].server[0] droppedJobsQueue 117
scalar FogNoLB.fog[28].server[0] droppedJobsTimout 6
scalar FogNoLB.fog[28].server[0] droppedJobsSLA 0
scalar FogNoLB.fog[28].server[0] droppedJobsTotal 123
scalar FogNoLB.fog[29].dispatcher localJobs 5898
scalar FogNoLB.fog[29].dispatcher remoteJobs 0
scalar FogNoLB.fog[29].dispatcher probeQueries 0
scalar FogNoLB.fog[29].dispatcher probeAnswers 0
scalar FogNoLB.fog[29].dispatcher droppedJobsSLA 0
scalar FogNoLB.fog[29].dispatcher jobs_class_1 5898
scalar FogNoLB.fog[29].dispatcher localJobs_class_1 5898
scalar FogNoLB.fog[29].server[0] rho 0.89029026031494
scalar FogNoLB.fog[29].server[0] congestionRatio 0
scalar FogNoLB.fog[29].server[0] totalJobs 5898
scalar FogNoLB.fog[29].server[0] droppedJobsQueue 136
scalar FogNoLB.fog[29].server[0] droppedJobsTimout 8
scalar FogNoLB.fog[29].server[0] droppedJobsSLA 0
scalar FogNoLB.fog[29].server[0] droppedJobsTotal 144
scalar FogNoLB.fog[30].dispatcher localJobs 5795
scalar FogNoLB.fog[30].dispatcher remoteJobs 0
scalar FogNoLB.fog[30].dispatcher probeQueries 0
scalar FogNoLB.fog[30].dispatcher probeAnswers 0
scalar FogNoLB.fog[30].dispatcher droppedJobsSLA 0
scalar FogNoLB.fog[30].dispatcher jobs_class_1 5795
scalar FogNoLB.fog[30].dispatcher localJobs_class_1 5795
scalar FogNoLB.fog[30].server[0] rho 0.88315957784653
scalar FogNoLB.fog[30].server[0] congestionRatio 0
scalar FogNoLB.fog[30].server[0] totalJobs 5795
scalar FogNoLB.fog[30].server[0] droppedJobsQueue 83
scalar FogNoLB.fog[30].server[0] droppedJobsTimout 3
scalar FogNoLB.fog[30].server[0] droppedJobsSLA 0
scalar FogNoLB.fog[30].server[0] droppedJobsTotal 86
scalar FogNoLB.fog[31].dispatcher localJobs 5990
scalar FogNoLB.fog[31].dispatcher remoteJobs 0
scalar FogNoLB.fog[31].dispatcher probeQueries 0
scalar FogNoLB.fog[31].dispatcher probeAnswers 0
scalar FogNoLB.fog[31].dispatcher droppedJobsSLA 0
scalar FogNoLB.fog[31].dispatcher jobs_class_1 5990
scalar FogNoLB.fog[31].dispatcher localJobs_class_1 5990
scalar FogNoLB.fog[31].server[0] rho 0.90825003385544
scalar FogNoLB.fog[31].server[0] congestionRatio 0
scalar FogNoLB.fog[31].server[0] totalJobs 5990
scalar FogNoLB.fog[31].server[0] droppedJobsQueue 113
scalar FogNoLB.fog[31].server[0] droppedJobsTimout 5
scalar FogNoLB.fog[31].server[0] droppedJobsSLA 0
scalar FogNoLB.fog[31].server[0] droppedJobsTotal 118
scalar FogNoLB.fog[32].dispatcher localJobs 5709
scalar FogNoLB.fog[32].dispatcher remoteJobs 0
scalar FogNoLB.fog[32].dispatcher probeQueries 0
scalar FogNoLB.fog[32].dispatcher probeAnswers 0
scalar FogNoLB.fog[32].dispatcher droppedJobsSLA 0
scalar FogNoLB.fog[32].dispatcher jobs_class_1 5709
scalar FogNoLB.fog[32].dispatcher localJobs_class_1 5709
scalar FogNoLB.fog[32].server[0] rho 0.86853504180908
scalar FogNoLB.fog[32].server[0] congestionRatio 0
scalar FogNoLB.fog[32].server[0] totalJobs 5709
scalar FogNoLB.fog[32].server[0] droppedJobsQueue 91
scalar FogNoLB.fog[32].server[0] droppedJobsTimout 6
scalar FogNoLB.fog[32].server[0] droppedJobsSLA 0
scalar FogNoLB.fog[32].server[0] droppedJobsTotal 97
scalar FogNoLB.fog[33].dispatcher localJobs 5941
scalar FogNoLB.fog[33].dispatcher remoteJobs 0
scalar FogNoLB.fog[33].dispatcher probeQueries 0
scalar FogNoLB.fog[33].dispatcher probeAnswers 0
scalar FogNoLB.fog[33].dispatcher droppedJobsSLA 0
scalar FogNoLB.fog[33].dispatcher jobs_class_1 5941
scalar FogNoLB.fog[33].dispatcher localJobs_class_1 5941
scalar FogNoLB.fog[33].server[0] rho 0.89352476596832
scalar FogNoLB.fog[33].server[0] congestionRatio 0
scalar FogNoLB.fog[33].server[0] totalJobs 5941
scalar FogNoLB.fog[33].server[0] droppedJobsQueue 157
scalar FogNoLB.fog[33].server[0] droppedJobsTimout 7
scalar FogNoLB.fog[33].server[0] droppedJobsSLA 0
scalar FogNoLB.fog[33].server[0] droppedJobsTotal 164
scalar FogNoLB.fog[34].dispatcher localJobs 5763
scalar FogNoLB.fog[34].dispatcher remoteJobs 0
scalar FogNoLB.fog[34].dispatcher probeQueries 0
scalar FogNoLB.fog[34].dispatcher probeAnswers 0
scalar FogNoLB.fog[34].dispatcher droppedJobsSLA 0
scalar FogNoLB.fog[34].dispatcher jobs_class_1 5763
scalar FogNoLB.fog[34].dispatcher localJobs_class_1 5763
scalar FogNoLB.fog[34].server[0] rho 0.87979030609131
scalar FogNoLB.fog[34].server[0] congestionRatio 0
scalar FogNoLB.fog[34].server[0] totalJobs 5763
scalar FogNoLB.fog[34].server[0] droppedJobsQueue 73
scalar FogNoLB.fog[34].server[0] droppedJobsTimout 10
scalar FogNoLB.fog[34].server[0] droppedJobsSLA 0
scalar FogNoLB.fog[34].server[0] droppedJobsTotal 83
scalar FogNoLB.fog[35].dispatcher localJobs 5824
scalar FogNoLB.fog[35].dispatcher remoteJobs 0
scalar FogNoLB.fog[35].dispatcher probeQueries 0
scalar FogNoLB.fog[35].dispatcher probeAnswers 0
scalar FogNoLB.fog[35].dispatcher droppedJobsSLA 0
scalar FogNoLB.fog[35].dispatcher jobs_class_1 5824
scalar FogNoLB.fog[35].dispatcher localJobs_class_1 5824
scalar FogNoLB.fog[35].server[0] rho 0.88649648427963
scalar FogNoLB.fog[35].server[0] congestionRatio 0
scalar FogNoLB.fog[35].server[0] totalJobs 5824
scalar FogNoLB.fog[35].server[0] droppedJobsQueue 86
scalar FogNoLB.fog[35].server[0] droppedJobsTimout 2
scalar FogNoLB.fog[35].server[0] droppedJobsSLA 0
scalar FogNoLB.fog[35].server[0] droppedJobsTotal 88
scalar FogNoLB.fog[36].dispatcher localJobs 5864
scalar FogNoLB.fog[36].dispatcher remoteJobs 0
scalar FogNoLB.fog[36].dispatcher probeQueries 0
scalar FogNoLB.fog[36].dispatcher probeAnswers 0
scalar FogNoLB.fog[36].dispatcher droppedJobsSLA 0
scalar FogNoLB.fog[36].dispatcher jobs_class_1 5864
scalar FogNoLB.fog[36].dispatcher localJobs_class_1 5864
scalar FogNoLB.fog[36].server[0] rho 0.89255505800247
scalar FogNoLB.fog[36].server[0] congestionRatio 0
scalar FogNoLB.fog[36].server[0] totalJobs 5864
scalar FogNoLB.fog[36].server[0] droppedJobsQueue 86
scalar FogNoLB.fog[36].server[0] droppedJobsTimout 3
scalar FogNoLB.fog[36].server[0] droppedJobsSLA 0
scalar FogNoLB.fog[36].server[0] droppedJobsTotal 89
scalar FogNoLB.fog[37].dispatcher localJobs 5900
scalar FogNoLB.fog[37].dispatcher remoteJobs 0
scalar FogNoLB.fog[37].dispatcher probeQueries 0
scalar FogNoLB.fog[37].dispatcher probeAnswers 0
scalar FogNoLB.fog[37].dispatcher droppedJobsSLA 0
scalar FogNoLB.fog[37].dispatcher jobs_class_1 5900
scalar FogNoLB.fog[37].dispatcher localJobs_class_1 5900
scalar FogNoLB.fog[37].server[0] rho 0.89514148235321
scalar FogNoLB.fog[37].server[0] congestionRatio 0
scalar FogNoLB.fog[37].server[0] totalJobs 5900
scalar FogNoLB.fog[37].server[0] droppedJobsQueue 111
scalar FogNoLB.fog[37].server[0] droppedJobsTimout 8
scalar FogNoLB.fog[37].server[0] droppedJobsSLA 0
scalar FogNoLB.fog[37].server[0] droppedJobsTotal 119
scalar FogNoLB.fog[38].dispatcher localJobs 5852
scalar FogNoLB.fog[38].dispatcher remoteJobs 0
scalar FogNoLB.fog[38].dispatcher probeQueries 0
scalar FogNoLB.fog[38].dispatcher probeAnswers 0
scalar FogNoLB.fog[38].dispatcher droppedJobsSLA 0
scalar FogNoLB.fog[38].dispatcher jobs_class_1 5852
scalar FogNoLB.fog[38].dispatcher localJobs_class_1 5852
scalar FogNoLB.fog[38].server[0] rho 0.88946717977524
scalar FogNoLB.fog[38].server[0] congestionRatio 0
scalar FogNoLB.fog[38].server[0] totalJobs 5852
scalar FogNoLB.fog[38].server[0] droppedJobsQueue 98
scalar FogNoLB.fog[38].server[0] droppedJobsTimout 11
scalar FogNoLB.fog[38].server[0] droppedJobsSLA 0
scalar FogNoLB.fog[38].server[0] droppedJobsTotal 109
scalar FogNoLB.fog[39].dispatcher localJobs 5892
scalar FogNoLB.fog[39].dispatcher remoteJobs 0
scalar FogNoLB.fog[39].dispatcher probeQueries 0
scalar FogNoLB.fog[39].dispatcher probeAnswers 0
scalar FogNoLB.fog[39].dispatcher droppedJobsSLA 0
scalar FogNoLB.fog[39].dispatcher jobs_class_1 5892
scalar FogNoLB.fog[39].dispatcher localJobs_class_1 5892
scalar FogNoLB.fog[39].server[0] rho 0.89522033929825
scalar FogNoLB.fog[39].server[0] congestionRatio 0
scalar FogNoLB.fog[39].server[0] totalJobs 5892
scalar FogNoLB.fog[39].server[0] droppedJobsQueue 100
scalar FogNoLB.fog[39].server[0] droppedJobsTimout 6
scalar FogNoLB.fog[39].server[0] droppedJobsSLA 0
scalar FogNoLB.fog[39].server[0] droppedJobsTotal 106
scalar FogNoLB.fog[40].dispatcher localJobs 5817
scalar FogNoLB.fog[40].dispatcher remoteJobs 0
scalar FogNoLB.fog[40].dispatcher probeQueries 0
scalar FogNoLB.fog[40].dispatcher probeAnswers 0
scalar FogNoLB.fog[40].dispatcher droppedJobsSLA 0
scalar FogNoLB.fog[40].dispatcher jobs_class_1 5817
scalar FogNoLB.fog[40].dispatcher localJobs_class_1 5817
scalar FogNoLB.fog[40].server[0] rho 0.87701678276062
scalar FogNoLB.fog[40].server[0] congestionRatio 0
scalar FogNoLB.fog[40].server[0] totalJobs 5817
scalar FogNoLB.fog[40].server[0] droppedJobsQueue 145
scalar FogNoLB.fog[40].server[0] droppedJobsTimout 10
scalar FogNoLB.fog[40].server[0] droppedJobsSLA 0
scalar FogNoLB.fog[40].server[0] droppedJobsTotal 155
scalar FogNoLB.fog[41].dispatcher localJobs 5828
scalar FogNoLB.fog[41].dispatcher remoteJobs 0
scalar FogNoLB.fog[41].dispatcher probeQueries 0
scalar FogNoLB.fog[41].dispatcher probeAnswers 0
scalar FogNoLB.fog[41].dispatcher droppedJobsSLA 0
scalar FogNoLB.fog[41].dispatcher jobs_class_1 5828
scalar FogNoLB.fog[41].dispatcher localJobs_class_1 5828
scalar FogNoLB.fog[41].server[0] rho 0.88118541240692
scalar FogNoLB.fog[41].server[0] congestionRatio 0
scalar FogNoLB.fog[41].server[0] totalJobs 5828
scalar FogNoLB.fog[41].server[0] droppedJobsQueue 123
scalar FogNoLB.fog[41].server[0] droppedJobsTimout 4
scalar FogNoLB.fog[41].server[0] droppedJobsSLA 0
scalar FogNoLB.fog[41].server[0] droppedJobsTotal 127
scalar FogNoLB.fog[42].dispatcher localJobs 5757
scalar FogNoLB.fog[42].dispatcher remoteJobs 0
scalar FogNoLB.fog[42].dispatcher probeQueries 0
scalar FogNoLB.fog[42].dispatcher probeAnswers 0
scalar FogNoLB.fog[42].dispatcher droppedJobsSLA 0
scalar FogNoLB.fog[42].dispatcher jobs_class_1 5757
scalar FogNoLB.fog[42].dispatcher localJobs_class_1 5757
scalar FogNoLB.fog[42].server[0] rho 0.87078469991684
scalar FogNoLB.fog[42].server[0] congestionRatio 0
scalar FogNoLB.fog[42].server[0] totalJobs 5757
scalar FogNoLB.fog[42].server[0] droppedJobsQueue 124
scalar FogNoLB.fog[42].server[0] droppedJobsTimout 9
scalar FogNoLB.fog[42].server[0] droppedJobsSLA 0
scalar FogNoLB.fog[42].server[0] droppedJobsTotal 133
scalar FogNoLB.fog[43].dispatcher localJobs 5802
scalar FogNoLB.fog[43].dispatcher remoteJobs 0
scalar FogNoLB.fog[43].dispatcher probeQueries 0
scalar FogNoLB.fog[43].dispatcher probeAnswers 0
scalar FogNoLB.fog[43].dispatcher droppedJobsSLA 0
scalar FogNoLB.fog[43].dispatcher jobs_class_1 5802
scalar FogNoLB.fog[43].dispatcher localJobs_class_1 5802
scalar FogNoLB.fog[43].server[0] rho 0.88592654466629
scalar FogNoLB.fog[43].server[0] congestionRatio 0
scalar FogNoLB.fog[43].server[0] totalJobs 5802
scalar FogNoLB.fog[43].server[0] droppedJobsQueue 72
scalar FogNoLB.fog[43].server[0] droppedJobsTimout 1
scalar FogNoLB.fog[43].server[0] droppedJobsSLA 0
scalar FogNoLB.fog[43].server[0] droppedJobsTotal 73
scalar FogNoLB.fog[44].dispatcher localJobs 5774
scalar FogNoLB.fog[44].dispatcher remoteJobs 0
scalar FogNoLB.fog[44].dispatcher probeQueries 0
scalar FogNoLB.fog[44].dispatcher probeAnswers 0
scalar FogNoLB.fog[44].dispatcher droppedJobsSLA 0
scalar FogNoLB.fog[44].dispatcher jobs_class_1 5774
scalar FogNoLB.fog[44].dispatcher localJobs_class_1 5774
scalar FogNoLB.fog[44].server[0] rho 0.88244545459747
scalar FogNoLB.fog[44].server[0] congestionRatio 0
scalar FogNoLB.fog[44].server[0] totalJobs 5774
scalar FogNoLB.fog[44].server[0] droppedJobsQueue 60
scalar FogNoLB.fog[44].server[0] droppedJobsTimout 3
scalar FogNoLB.fog[44].server[0] droppedJobsSLA 0
scalar FogNoLB.fog[44].server[0] droppedJobsTotal 63
scalar FogNoLB.fog[45].dispatcher localJobs 5849
scalar FogNoLB.fog[45].dispatcher remoteJobs 0
scalar FogNoLB.fog[45].dispatcher probeQueries 0
scalar FogNoLB.fog[45].dispatcher probeAnswers 0
scalar FogNoLB.fog[45].dispatcher droppedJobsSLA 0
scalar FogNoLB.fog[45].dispatcher jobs_class_1 5849
scalar FogNoLB.fog[45].dispatcher localJobs_class_1 5849
scalar FogNoLB.fog[45].server[0] rho 0.88844156265259
scalar FogNoLB.fog[45].server[0] congestionRatio 0
scalar FogNoLB.fog[45].server[0] totalJobs 5849
scalar FogNoLB.fog[45].server[0] droppedJobsQueue 102
scalar FogNoLB.fog[45].server[0] droppedJobsTimout 9
scalar FogNoLB.fog[45].server[0] droppedJobsSLA 0
scalar FogNoLB.fog[45].server[0] droppedJobsTotal 111
scalar FogNoLB.fog[46].dispatcher localJobs 5863
scalar FogNoLB.fog[46].dispatcher remoteJobs 0
scalar FogNoLB.fog[46].dispatcher probeQueries 0
scalar FogNoLB.fog[46].dispatcher probeAnswers 0
scalar FogNoLB.fog[46].dispatcher droppedJobsSLA 0
scalar FogNoLB.fog[46].dispatcher jobs_class_1 5863
scalar FogNoLB.fog[46].dispatcher localJobs_class_1 5863
scalar FogNoLB.fog[46].server[0] rho 0.89140069484711
scalar FogNoLB.fog[46].server[0] congestionRatio 0
scalar FogNoLB.fog[46].server[0] totalJobs 5863
scalar FogNoLB.fog[46].server[0] droppedJobsQueue 95
scalar FogNoLB.fog[46].server[0] droppedJobsTimout 3
scalar FogNoLB.fog[46].server[0] droppedJobsSLA 0
scalar FogNoLB.fog[46].server[0] droppedJobsTotal 98
scalar FogNoLB.fog[47].dispatcher localJobs 6011
scalar FogNoLB.fog[47].dispatcher remoteJobs 0
scalar FogNoLB.fog[47].dispatcher probeQueries 0
scalar FogNoLB.fog[47].dispatcher probeAnswers 0
scalar FogNoLB.fog[47].dispatcher droppedJobsSLA 0
scalar FogNoLB.fog[47].dispatcher jobs_class_1 6011
scalar FogNoLB.fog[47].dispatcher localJobs_class_1 6011
scalar FogNoLB.fog[47].server[0] rho 0.91161602735519
scalar FogNoLB.fog[47].server[0] congestionRatio 0
scalar FogNoLB.fog[47].server[0] totalJobs 6011
scalar FogNoLB.fog[47].server[0] droppedJobsQueue 118
scalar FogNoLB.fog[47].server[0] droppedJobsTimout 4
scalar FogNoLB.fog[47].server[0] droppedJobsSLA 0
scalar FogNoLB.fog[47].server[0] droppedJobsTotal 122
scalar FogNoLB.fog[48].dispatcher localJobs 5718
scalar FogNoLB.fog[48].dispatcher remoteJobs 0
scalar FogNoLB.fog[48].dispatcher probeQueries 0
scalar FogNoLB.fog[48].dispatcher probeAnswers 0
scalar FogNoLB.fog[48].dispatcher droppedJobsSLA 0
scalar FogNoLB.fog[48].dispatcher jobs_class_1 5718
scalar FogNoLB.fog[48].dispatcher localJobs_class_1 5718
scalar FogNoLB.fog[48].server[0] rho 0.86813628673553
scalar FogNoLB.fog[48].server[0] congestionRatio 0
scalar FogNoLB.fog[48].server[0] totalJobs 5718
scalar FogNoLB.fog[48].server[0] droppedJobsQueue 100
scalar FogNoLB.fog[48].server[0] droppedJobsTimout 3
scalar FogNoLB.fog[48].server[0] droppedJobsSLA 0
scalar FogNoLB.fog[48].server[0] droppedJobsTotal 103
scalar FogNoLB.fog[49].dispatcher localJobs 5831
scalar FogNoLB.fog[49].dispatcher remoteJobs 0
scalar FogNoLB.fog[49].dispatcher probeQueries 0
scalar FogNoLB.fog[49].dispatcher probeAnswers 0
scalar FogNoLB.fog[49].dispatcher droppedJobsSLA 0
scalar FogNoLB.fog[49].dispatcher jobs_class_1 5831
scalar FogNoLB.fog[49].dispatcher localJobs_class_1 5831
scalar FogNoLB.fog[49].server[0] rho 0.88361036777496
scalar FogNoLB.fog[49].server[0] congestionRatio 0
scalar FogNoLB.fog[49].server[0] totalJobs 5831
scalar FogNoLB.fog[49].server[0] droppedJobsQueue 111
scalar FogNoLB.fog[49].server[0] droppedJobsTimout 7
scalar FogNoLB.fog[49].server[0] droppedJobsSLA 0
scalar FogNoLB.fog[49].server[0] droppedJobsTotal 118
scalar FogNoLB.fog[50].dispatcher localJobs 5877
scalar FogNoLB.fog[50].dispatcher remoteJobs 0
scalar FogNoLB.fog[50].dispatcher probeQueries 0
scalar FogNoLB.fog[50].dispatcher probeAnswers 0
scalar FogNoLB.fog[50].dispatcher droppedJobsSLA 0
scalar FogNoLB.fog[50].dispatcher jobs_class_1 5877
scalar FogNoLB.fog[50].dispatcher localJobs_class_1 5877
scalar FogNoLB.fog[50].server[0] rho 0.89499044418335
scalar FogNoLB.fog[50].server[0] congestionRatio 0
scalar FogNoLB.fog[50].server[0] totalJobs 5877
scalar FogNoLB.fog[50].server[0] droppedJobsQueue 87
scalar FogNoLB.fog[50].server[0] droppedJobsTimout 5
scalar FogNoLB.fog[50].server[0] droppedJobsSLA 0
scalar FogNoLB.fog[50].server[0] droppedJobsTotal 92
scalar FogNoLB.fog[51].dispatcher localJobs 5880
scalar FogNoLB.fog[51].dispatcher remoteJobs 0
scalar FogNoLB.fog[51].dispatcher probeQueries 0
scalar FogNoLB.fog[51].dispatcher probeAnswers 0
scalar FogNoLB.fog[51].dispatcher droppedJobsSLA 0
scalar FogNoLB.fog[51].dispatcher jobs_class_1 5880
scalar FogNoLB.fog[51].dispatcher localJobs_class_1 5880
scalar FogNoLB.fog[51].server[0] rho 0.89135414361954
scalar FogNoLB.fog[51].server[0] congestionRatio 0
scalar FogNoLB.fog[51].server[0] totalJobs 5880
scalar FogNoLB.fog[51].server[0] droppedJobsQueue 113
scalar FogNoLB.fog[51].server[0] droppedJobsTimout 7
scalar FogNoLB.fog[51].server[0] droppedJobsSLA 0
scalar FogNoLB.fog[51].server[0] droppedJobsTotal 120
scalar FogNoLB.fog[52].dispatcher localJobs 5844
scalar FogNoLB.fog[52].dispatcher remoteJobs 0
scalar FogNoLB.fog[52].dispatcher probeQueries 0
scalar FogNoLB.fog[52].dispatcher probeAnswers 0
scalar FogNoLB.fog[52].dispatcher droppedJobsSLA 0
scalar FogNoLB.fog[52].dispatcher jobs_class_1 5844
scalar FogNoLB.fog[52].dispatcher localJobs_class_1 5844
scalar FogNoLB.fog[52].server[0] rho 0.88143390417099
scalar FogNoLB.fog[52].server[0] congestionRatio 0
scalar FogNoLB.fog[52].server[0] totalJobs 5844
scalar FogNoLB.fog[52].server[0] droppedJobsQueue 138
scalar FogNoLB.fog[52].server[0] droppedJobsTimout 7
scalar FogNoLB.fog[52].server[0] droppedJobsSLA 0
scalar FogNoLB.fog[52].server[0] droppedJobsTotal 145
scalar FogNoLB.fog[53].dispatcher localJobs 6018
scalar FogNoLB.fog[53].dispatcher remoteJobs 0
scalar FogNoLB.fog[53].dispatcher probeQueries 0
scalar FogNoLB.fog[53].dispatcher probeAnswers 0
scalar FogNoLB.fog[53].dispatcher droppedJobsSLA 0
scalar FogNoLB.fog[53].dispatcher jobs_class_1 6018
scalar FogNoLB.fog[53].dispatcher localJobs_class_1 6018
scalar FogNoLB.fog[53].server[0] rho 0.90415382385254
scalar FogNoLB.fog[53].server[0] congestionRatio 0
scalar FogNoLB.fog[53].server[0] totalJobs 6018
scalar FogNoLB.fog[53].server[0] droppedJobsQueue 167
scalar FogNoLB.fog[53].server[0] droppedJobsTimout 8
scalar FogNoLB.fog[53].server[0] droppedJobsSLA 0
scalar FogNoLB.fog[53].server[0] droppedJobsTotal 175
scalar FogNoLB.fog[54].dispatcher localJobs 5808
scalar FogNoLB.fog[54].dispatcher remoteJobs 0
scalar FogNoLB.fog[54].dispatcher probeQueries 0
scalar FogNoLB.fog[54].dispatcher probeAnswers 0
scalar FogNoLB.fog[54].dispatcher droppedJobsSLA 0
scalar FogNoLB.fog[54].dispatcher jobs_class_1 5808
scalar FogNoLB.fog[54].dispatcher localJobs_class_1 5808
scalar FogNoLB.fog[54].server[0] rho 0.88816791772842
scalar FogNoLB.fog[54].server[0] congestionRatio 0
scalar FogNoLB.fog[54].server[0] totalJobs 5808
scalar FogNoLB.fog[54].server[0] droppedJobsQueue 63
scalar FogNoLB.fog[54].server[0] droppedJobsTimout 7
scalar FogNoLB.fog[54].server[0] droppedJobsSLA 0
scalar FogNoLB.fog[54].server[0] droppedJobsTotal 70
scalar FogNoLB.fog[55].dispatcher localJobs 5695
scalar FogNoLB.fog[55].dispatcher remoteJobs 0
scalar FogNoLB.fog[55].dispatcher probeQueries 0
scalar FogNoLB.fog[55].dispatcher probeAnswers 0
scalar FogNoLB.fog[55].dispatcher droppedJobsSLA 0
scalar FogNoLB.fog[55].dispatcher jobs_class_1 5695
scalar FogNoLB.fog[55].dispatcher localJobs_class_1 5695
scalar FogNoLB.fog[55].server[0] rho 0.86797845363617
scalar FogNoLB.fog[55].server[0] congestionRatio 0
scalar FogNoLB.fog[55].server[0] totalJobs 5695
scalar FogNoLB.fog[55].server[0] droppedJobsQueue 77
scalar FogNoLB.fog[55].server[0] droppedJobsTimout 2
scalar FogNoLB.fog[55].server[0] droppedJobsSLA 0
scalar FogNoLB.fog[55].server[0] droppedJobsTotal 79
scalar FogNoLB.fog[56].dispatcher localJobs 5841
scalar FogNoLB.fog[56].dispatcher remoteJobs 0
scalar FogNoLB.fog[56].dispatcher probeQueries 0
scalar FogNoLB.fog[56].dispatcher probeAnswers 0
scalar FogNoLB.fog[56].dispatcher droppedJobsSLA 0
scalar FogNoLB.fog[56].dispatcher jobs_class_1 5841
scalar FogNoLB.fog[56].dispatcher localJobs_class_1 5841
scalar FogNoLB.fog[56].server[0] rho 0.88629102706909
scalar FogNoLB.fog[56].server[0] congestionRatio 0
scalar FogNoLB.fog[56].server[0] totalJobs 5841
scalar FogNoLB.fog[56].server[0] droppedJobsQueue 107
scalar FogNoLB.fog[56].server[0] droppedJobsTimout 4
scalar FogNoLB.fog[56].server[0] droppedJobsSLA 0
scalar FogNoLB.fog[56].server[0] droppedJobsTotal 111
scalar FogNoLB.fog[57].dispatcher localJobs 5924
scalar FogNoLB.fog[57].dispatcher remoteJobs 0
scalar FogNoLB.fog[57].dispatcher probeQueries 0
scalar FogNoLB.fog[57].dispatcher probeAnswers 0
scalar FogNoLB.fog[57].dispatcher droppedJobsSLA 0
scalar FogNoLB.fog[57].dispatcher jobs_class_1 5924
scalar FogNoLB.fog[57].dispatcher localJobs_class_1 5924
scalar FogNoLB.fog[57].server[0] rho 0.89600992202759
scalar FogNoLB.fog[57].server[0] congestionRatio 0
scalar FogNoLB.fog[57].server[0] totalJobs 5924
scalar FogNoLB.fog[57].server[0] droppedJobsQueue 124
scalar FogNoLB.fog[57].server[0] droppedJobsTimout 4
scalar FogNoLB.fog[57].server[0] droppedJobsSLA 0
scalar FogNoLB.fog[57].server[0] droppedJobsTotal 128
scalar FogNoLB.fog[58].dispatcher localJobs 5838
scalar FogNoLB.fog[58].dispatcher remoteJobs 0
scalar FogNoLB.fog[58].dispatcher probeQueries 0
scalar FogNoLB.fog[58].dispatcher probeAnswers 0
scalar FogNoLB.fog[58].dispatcher droppedJobsSLA 0
scalar FogNoLB.fog[58].dispatcher jobs_class_1 5838
scalar FogNoLB.fog[58].dispatcher localJobs_class_1 5838
scalar FogNoLB.fog[58].server[0] rho 0.88533872365952
scalar FogNoLB.fog[58].server[0] congestionRatio 0
scalar FogNoLB.fog[58].server[0] totalJobs 5838
scalar FogNoLB.fog[58].server[0] droppedJobsQueue 112
scalar FogNoLB.fog[58].server[0] droppedJobsTimout 11
scalar FogNoLB.fog[58].server[0] droppedJobsSLA 0
scalar FogNoLB.fog[58].server[0] droppedJobsTotal 123
scalar FogNoLB.fog[59].dispatcher localJobs 5817
scalar FogNoLB.fog[59].dispatcher remoteJobs 0
scalar FogNoLB.fog[59].dispatcher probeQueries 0
scalar FogNoLB.fog[59].dispatcher probeAnswers 0
scalar FogNoLB.fog[59].dispatcher droppedJobsSLA 0
scalar FogNoLB.fog[59].dispatcher jobs_class_1 5817
scalar FogNoLB.fog[59].dispatcher localJobs_class_1 5817
scalar FogNoLB.fog[59].server[0] rho 0.88338589668274
scalar FogNoLB.fog[59].server[0] congestionRatio 0
scalar FogNoLB.fog[59].server[0] totalJobs 5817
scalar FogNoLB.fog[59].server[0] droppedJobsQueue 100
scalar FogNoLB.fog[59].server[0] droppedJobsTimout 4
scalar FogNoLB.fog[59].server[0] droppedJobsSLA 0
scalar FogNoLB.fog[59].server[0] droppedJobsTotal 104
scalar FogNoLB.fog[60].dispatcher localJobs 5818
scalar FogNoLB.fog[60].dispatcher remoteJobs 0
scalar FogNoLB.fog[60].dispatcher probeQueries 0
scalar FogNoLB.fog[60].dispatcher probeAnswers 0
scalar FogNoLB.fog[60].dispatcher droppedJobsSLA 0
scalar FogNoLB.fog[60].dispatcher jobs_class_1 5818
scalar FogNoLB.fog[60].dispatcher localJobs_class_1 5818
scalar FogNoLB.fog[60].server[0] rho 0.88634765148163
scalar FogNoLB.fog[60].server[0] congestionRatio 0
scalar FogNoLB.fog[60].server[0] totalJobs 5818
scalar FogNoLB.fog[60].server[0] droppedJobsQueue 86
scalar FogNoLB.fog[60].server[0] droppedJobsTimout 3
scalar FogNoLB.fog[60].server[0] droppedJobsSLA 0
scalar FogNoLB.fog[60].server[0] droppedJobsTotal 89
scalar FogNoLB.fog[61].dispatcher localJobs 5790
scalar FogNoLB.fog[61].dispatcher remoteJobs 0
scalar FogNoLB.fog[61].dispatcher probeQueries 0
scalar FogNoLB.fog[61].dispatcher probeAnswers 0
scalar FogNoLB.fog[61].dispatcher droppedJobsSLA 0
scalar FogNoLB.fog[61].dispatcher jobs_class_1 5790
scalar FogNoLB.fog[61].dispatcher localJobs_class_1 5790
scalar FogNoLB.fog[61].server[0] rho 0.88223797082901
scalar FogNoLB.fog[61].server[0] congestionRatio 0
scalar FogNoLB.fog[61].server[0] totalJobs 5790
scalar FogNoLB.fog[61].server[0] droppedJobsQueue 85
scalar FogNoLB.fog[61].server[0] droppedJobsTimout 6
scalar FogNoLB.fog[61].server[0] droppedJobsSLA 0
scalar FogNoLB.fog[61].server[0] droppedJobsTotal 91
scalar FogNoLB.fog[62].dispatcher localJobs 5824
scalar FogNoLB.fog[62].dispatcher remoteJobs 0
scalar FogNoLB.fog[62].dispatcher probeQueries 0
scalar FogNoLB.fog[62].dispatcher probeAnswers 0
scalar FogNoLB.fog[62].dispatcher droppedJobsSLA 0
scalar FogNoLB.fog[62].dispatcher jobs_class_1 5824
scalar FogNoLB.fog[62].dispatcher localJobs_class_1 5824
scalar FogNoLB.fog[62].server[0] rho 0.88082683086395
scalar FogNoLB.fog[62].server[0] congestionRatio 0
scalar FogNoLB.fog[62].server[0] totalJobs 5824
scalar FogNoLB.fog[62].server[0] droppedJobsQueue 122
scalar FogNoLB.fog[62].server[0] droppedJobsTimout 1
scalar FogNoLB.fog[62].server[0] droppedJobsSLA 0
scalar FogNoLB.fog[62].server[0] droppedJobsTotal 123
scalar FogNoLB.fog[63].dispatcher localJobs 5827
scalar FogNoLB.fog[63].dispatcher remoteJobs 0
scalar FogNoLB.fog[63].dispatcher probeQueries 0
scalar FogNoLB.fog[63].dispatcher probeAnswers 0
scalar FogNoLB.fog[63].dispatcher droppedJobsSLA 0
scalar FogNoLB.fog[63].dispatcher jobs_class_1 5827
scalar FogNoLB.fog[63].dispatcher localJobs_class_1 5827
scalar FogNoLB.fog[63].server[0] rho 0.88631147146225
scalar FogNoLB.fog[63].server[0] congestionRatio 0
scalar FogNoLB.fog[63].server[0] totalJobs 5827
scalar FogNoLB.fog[63].server[0] droppedJobsQueue 92
scalar FogNoLB.fog[63].server[0] droppedJobsTimout 4
scalar FogNoLB.fog[63].server[0] droppedJobsSLA 0
scalar FogNoLB.fog[63].server[0] droppedJobsTotal 96
scalar FogNoLB.fog[64].dispatcher localJobs 5718
scalar FogNoLB.fog[64].dispatcher remoteJobs 0
scalar FogNoLB.fog[64].dispatcher probeQueries 0
scalar FogNoLB.fog[64].dispatcher probeAnswers 0
scalar FogNoLB.fog[64].dispatcher droppedJobsSLA 0
scalar FogNoLB.fog[64].dispatcher jobs_class_1 5718
scalar FogNoLB.fog[64].dispatcher localJobs_class_1 5718
scalar FogNoLB.fog[64].server[0] rho 0.87201088666916
scalar FogNoLB.fog[64].server[0] congestionRatio 0
scalar FogNoLB.fog[64].server[0] totalJobs 5718
scalar FogNoLB.fog[64].server[0] droppedJobsQueue 69
scalar FogNoLB.fog[64].server[0] droppedJobsTimout 6
scalar FogNoLB.fog[64].server[0] droppedJobsSLA 0
scalar FogNoLB.fog[64].server[0] droppedJobsTotal 75
scalar FogNoLB.fog[65].dispatcher localJobs 5804
scalar FogNoLB.fog[65].dispatcher remoteJobs 0
scalar FogNoLB.fog[65].dispatcher probeQueries 0
scalar FogNoLB.fog[65].dispatcher probeAnswers 0
scalar FogNoLB.fog[65].dispatcher droppedJobsSLA 0
scalar FogNoLB.fog[65].dispatcher jobs_class_1 5804
scalar FogNoLB.fog[65].dispatcher localJobs_class_1 5804
scalar FogNoLB.fog[65].server[0] rho 0.882907807827
scalar FogNoLB.fog[65].server[0] congestionRatio 0
scalar FogNoLB.fog[65].server[0] totalJobs 5804
scalar FogNoLB.fog[65].server[0] droppedJobsQueue 85
scalar FogNoLB.fog[65].server[0] droppedJobsTimout 5
scalar FogNoLB.fog[65].server[0] droppedJobsSLA 0
scalar FogNoLB.fog[65].server[0] droppedJobsTotal 90
scalar FogNoLB.fog[66].dispatcher localJobs 5758
scalar FogNoLB.fog[66].dispatcher remoteJobs 0
scalar FogNoLB.fog[66].dispatcher probeQueries 0
scalar FogNoLB.fog[66].dispatcher probeAnswers 0
scalar FogNoLB.fog[66].dispatcher droppedJobsSLA 0
scalar FogNoLB.fog[66].dispatcher jobs_class_1 5758
scalar FogNoLB.fog[66].dispatcher localJobs_class_1 5758
scalar FogNoLB.fog[66].server[0] rho 0.8785714507103
scalar FogNoLB.fog[66].server[0] congestionRatio 0
scalar FogNoLB.fog[66].server[0] totalJobs 5758
scalar FogNoLB.fog[66].server[0] droppedJobsQueue 75
scalar FogNoLB.fog[66].server[0] droppedJobsTimout 4
scalar FogNoLB.fog[66].server[0] droppedJobsSLA 0
scalar FogNoLB.fog[66].server[0] droppedJobsTotal 79
scalar FogNoLB.fog[67].dispatcher localJobs 5970
scalar FogNoLB.fog[67].dispatcher remoteJobs 0
scalar FogNoLB.fog[67].dispatcher probeQueries 0
scalar FogNoLB.fog[67].dispatcher probeAnswers 0
scalar FogNoLB.fog[67].dispatcher droppedJobsSLA 0
scalar FogNoLB.fog[67].dispatcher jobs_class_1 5970
scalar FogNoLB.fog[67].dispatcher localJobs_class_1 5970
scalar FogNoLB.fog[67].server[0] rho 0.9013477563858
scalar FogNoLB.fog[67].server[0] congestionRatio 0
scalar FogNoLB.fog[67].server[0] totalJobs 5970
scalar FogNoLB.fog[67].server[0] droppedJobsQueue 139
scalar FogNoLB.fog[67].server[0] droppedJobsTimout 8
scalar FogNoLB.fog[67].server[0] droppedJobsSLA 0
scalar FogNoLB.fog[67].server[0] droppedJobsTotal 147
scalar FogNoLB.fog[68].dispatcher localJobs 5780
scalar FogNoLB.fog[68].dispatcher remoteJobs 0
scalar FogNoLB.fog[68].dispatcher probeQueries 0
scalar FogNoLB.fog[68].dispatcher probeAnswers 0
scalar FogNoLB.fog[68].dispatcher droppedJobsSLA 0
scalar FogNoLB.fog[68].dispatcher jobs_class_1 5780
scalar FogNoLB.fog[68].dispatcher localJobs_class_1 5780
scalar FogNoLB.fog[68].server[0] rho 0.88214081525803
scalar FogNoLB.fog[68].server[0] congestionRatio 0
scalar FogNoLB.fog[68].server[0] totalJobs 5780
scalar FogNoLB.fog[68].server[0] droppedJobsQueue 69
scalar FogNoLB.fog[68].server[0] droppedJobsTimout 3
scalar FogNoLB.fog[68].server[0] droppedJobsSLA 0
scalar FogNoLB.fog[68].server[0] droppedJobsTotal 72
scalar FogNoLB.fog[69].dispatcher localJobs 5797
scalar FogNoLB.fog[69].dispatcher remoteJobs 0
scalar FogNoLB.fog[69].dispatcher probeQueries 0
scalar FogNoLB.fog[69].dispatcher probeAnswers 0
scalar FogNoLB.fog[69].dispatcher droppedJobsSLA 0
scalar FogNoLB.fog[69].dispatcher jobs_class_1 5797
scalar FogNoLB.fog[69].dispatcher localJobs_class_1 5797
scalar FogNoLB.fog[69].server[0] rho 0.88280415534973
scalar FogNoLB.fog[69].server[0] congestionRatio 0
scalar FogNoLB.fog[69].server[0] totalJobs 5797
scalar FogNoLB.fog[69].server[0] droppedJobsQueue 88
scalar FogNoLB.fog[69].server[0] droppedJobsTimout 7
scalar FogNoLB.fog[69].server[0] droppedJobsSLA 0
scalar FogNoLB.fog[69].server[0] droppedJobsTotal 95
scalar FogNoLB.fog[70].dispatcher localJobs 5855
scalar FogNoLB.fog[70].dispatcher remoteJobs 0
scalar FogNoLB.fog[70].dispatcher probeQueries 0
scalar FogNoLB.fog[70].dispatcher probeAnswers 0
scalar FogNoLB.fog[70].dispatcher droppedJobsSLA 0
scalar FogNoLB.fog[70].dispatcher jobs_class_1 5855
scalar FogNoLB.fog[70].dispatcher localJobs_class_1 5855
scalar FogNoLB.fog[70].server[0] rho 0.88761389255524
scalar FogNoLB.fog[70].server[0] congestionRatio 0
scalar FogNoLB.fog[70].server[0] totalJobs 5855
scalar FogNoLB.fog[70].server[0] droppedJobsQueue 116
scalar FogNoLB.fog[70].server[0] droppedJobsTimout 15
scalar FogNoLB.fog[70].server[0] droppedJobsSLA 0
scalar FogNoLB.fog[70].server[0] droppedJobsTotal 131
scalar FogNoLB.fog[71].dispatcher localJobs 5865
scalar FogNoLB.fog[71].dispatcher remoteJobs 0
scalar FogNoLB.fog[71].dispatcher probeQueries 0
scalar FogNoLB.fog[71].dispatcher probeAnswers 0
scalar FogNoLB.fog[71].dispatcher droppedJobsSLA 0
scalar FogNoLB.fog[71].dispatcher jobs_class_1 5865
scalar FogNoLB.fog[71].dispatcher localJobs_class_1 5865
scalar FogNoLB.fog[71].server[0] rho 0.88468658924103
scalar FogNoLB.fog[71].server[0] congestionRatio 0
scalar FogNoLB.fog[71].server[0] totalJobs 5865
scalar FogNoLB.fog[71].server[0] droppedJobsQueue 139
scalar FogNoLB.fog[71].server[0] droppedJobsTimout 6
scalar FogNoLB.fog[71].server[0] droppedJobsSLA 0
scalar FogNoLB.fog[71].server[0] droppedJobsTotal 145
scalar FogNoLB.fog[72].dispatcher localJobs 5706
scalar FogNoLB.fog[72].dispatcher remoteJobs 0
scalar FogNoLB.fog[72].dispatcher probeQueries 0
scalar FogNoLB.fog[72].dispatcher probeAnswers 0
scalar FogNoLB.fog[72].dispatcher droppedJobsSLA 0
scalar FogNoLB.fog[72].dispatcher jobs_class_1 5706
scalar FogNoLB.fog[72].dispatcher localJobs_class_1 5706
scalar FogNoLB.fog[72].server[0] rho 0.87486302852631
scalar FogNoLB.fog[72].server[0] congestionRatio 0
scalar FogNoLB.fog[72].server[0] totalJobs 5706
scalar FogNoLB.fog[72].server[0] droppedJobsQueue 46
scalar FogNoLB.fog[72].server[0] droppedJobsTimout 1
scalar FogNoLB.fog[72].server[0] droppedJobsSLA 0
scalar FogNoLB.fog[72].server[0] droppedJobsTotal 47
scalar FogNoLB.fog[73].dispatcher localJobs 5799
scalar FogNoLB.fog[73].dispatcher remoteJobs 0
scalar FogNoLB.fog[73].dispatcher probeQueries 0
scalar FogNoLB.fog[73].dispatcher probeAnswers 0
scalar FogNoLB.fog[73].dispatcher droppedJobsSLA 0
scalar FogNoLB.fog[73].dispatcher jobs_class_1 5799
scalar FogNoLB.fog[73].dispatcher localJobs_class_1 5799
scalar FogNoLB.fog[73].server[0] rho 0.88295310735703
scalar FogNoLB.fog[73].server[0] congestionRatio 0
scalar FogNoLB.fog[73].server[0] totalJobs 5799
scalar FogNoLB.fog[73].server[0] droppedJobsQueue 88
scalar FogNoLB.fog[73].server[0] droppedJobsTimout 2
scalar FogNoLB.fog[73].server[0] droppedJobsSLA 0
scalar FogNoLB.fog[73].server[0] droppedJobsTotal 90
scalar FogNoLB.fog[74].dispatcher localJobs 5684
scalar FogNoLB.fog[74].dispatcher remoteJobs 0
scalar FogNoLB.fog[74].dispatcher probeQueries 0
scalar FogNoLB.fog[74].dispatcher probeAnswers 0
scalar FogNoLB.fog[74].dispatcher droppedJobsSLA 0
scalar FogNoLB.fog[74].dispatcher jobs_class_1 5684
scalar FogNoLB.fog[74].dispatcher localJobs_class_1 5684
scalar FogNoLB.fog[74].server[0] rho 0.86294561624527
scalar FogNoLB.fog[74].server[0] congestionRatio 0
scalar FogNoLB.fog[74].server[0] totalJobs 5684
scalar FogNoLB.fog[74].server[0] droppedJobsQueue 100
scalar FogNoLB.fog[74].server[0] droppedJobsTimout 5
scalar FogNoLB.fog[74].server[0] droppedJobsSLA 0
scalar FogNoLB.fog[74].server[0] droppedJobsTotal 105
scalar FogNoLB.fog[75].dispatcher localJobs 5913
scalar FogNoLB.fog[75].dispatcher remoteJobs 0
scalar FogNoLB.fog[75].dispatcher probeQueries 0
scalar FogNoLB.fog[75].dispatcher probeAnswers 0
scalar FogNoLB.fog[75].dispatcher droppedJobsSLA 0
scalar FogNoLB.fog[75].dispatcher jobs_class_1 5913
scalar FogNoLB.fog[75].dispatcher localJobs_class_1 5913
scalar FogNoLB.fog[75].server[0] rho 0.89639496803284
scalar FogNoLB.fog[75].server[0] congestionRatio 0
scalar FogNoLB.fog[75].server[0] totalJobs 5913
scalar FogNoLB.fog[75].server[0] droppedJobsQueue 108
scalar FogNoLB.fog[75].server[0] droppedJobsTimout 6
scalar FogNoLB.fog[75].server[0] droppedJobsSLA 0
scalar FogNoLB.fog[75].server[0] droppedJobsTotal 114
scalar FogNoLB.fog[76].dispatcher localJobs 5751
scalar FogNoLB.fog[76].dispatcher remoteJobs 0
scalar FogNoLB.fog[76].dispatcher probeQueries 0
scalar FogNoLB.fog[76].dispatcher probeAnswers 0
scalar FogNoLB.fog[76].dispatcher droppedJobsSLA 0
scalar FogNoLB.fog[76].dispatcher jobs_class_1 5751
scalar FogNoLB.fog[76].dispatcher localJobs_class_1 5751
scalar FogNoLB.fog[76].server[0] rho 0.8797761797905
scalar FogNoLB.fog[76].server[0] congestionRatio 0
scalar FogNoLB.fog[76].server[0] totalJobs 5751
scalar FogNoLB.fog[76].server[0] droppedJobsQueue 53
scalar FogNoLB.fog[76].server[0] droppedJobsTimout 2
scalar FogNoLB.fog[76].server[0] droppedJobsSLA 0
scalar FogNoLB.fog[76].server[0] droppedJobsTotal 55
scalar FogNoLB.fog[77].dispatcher localJobs 5778
scalar FogNoLB.fog[77].dispatcher remoteJobs 0
scalar FogNoLB.fog[77].dispatcher probeQueries 0
scalar FogNoLB.fog[77].dispatcher probeAnswers 0
scalar FogNoLB.fog[77].dispatcher droppedJobsSLA 0
scalar FogNoLB.fog[77].dispatcher jobs_class_1 5778
scalar FogNoLB.fog[77].dispatcher localJobs_class_1 5778
scalar FogNoLB.fog[77].server[0] rho 0.87968838214874
scalar FogNoLB.fog[77].server[0] congestionRatio 0
scalar FogNoLB.fog[77].server[0] totalJobs 5778
scalar FogNoLB.fog[77].server[0] droppedJobsQueue 86
scalar FogNoLB.fog[77].server[0] droppedJobsTimout 6
scalar FogNoLB.fog[77].server[0] droppedJobsSLA 0
scalar FogNoLB.fog[77].server[0] droppedJobsTotal 92
scalar FogNoLB.fog[78].dispatcher localJobs 5909
scalar FogNoLB.fog[78].dispatcher remoteJobs 0
scalar FogNoLB.fog[78].dispatcher probeQueries 0
scalar FogNoLB.fog[78].dispatcher probeAnswers 0
scalar FogNoLB.fog[78].dispatcher droppedJobsSLA 0
scalar FogNoLB.fog[78].dispatcher jobs_class_1 5909
scalar FogNoLB.fog[78].dispatcher localJobs_class_1 5909
scalar FogNoLB.fog[78].server[0] rho 0.89856350421906
scalar FogNoLB.fog[78].server[0] congestionRatio 0
scalar FogNoLB.fog[78].server[0] totalJobs 5909
scalar FogNoLB.fog[78].server[0] droppedJobsQueue 90
scalar FogNoLB.fog[78].server[0] droppedJobsTimout 7
scalar FogNoLB.fog[78].server[0] droppedJobsSLA 0
scalar FogNoLB.fog[78].server[0] droppedJobsTotal 97
scalar FogNoLB.fog[79].dispatcher localJobs 5828
scalar FogNoLB.fog[79].dispatcher remoteJobs 0
scalar FogNoLB.fog[79].dispatcher probeQueries 0
scalar FogNoLB.fog[79].dispatcher probeAnswers 0
scalar FogNoLB.fog[79].dispatcher droppedJobsSLA 0
scalar FogNoLB.fog[79].dispatcher jobs_class_1 5828
scalar FogNoLB.fog[79].dispatcher localJobs_class_1 5828
scalar FogNoLB.fog[79].server[0] rho 0.88522964715958
scalar FogNoLB.fog[79].server[0] congestionRatio 0
scalar FogNoLB.fog[79].server[0] totalJobs 5828
scalar FogNoLB.fog[79].server[0] droppedJobsQueue 101
scalar FogNoLB.fog[79].server[0] droppedJobsTimout 11
scalar FogNoLB.fog[79].server[0] droppedJobsSLA 0
scalar FogNoLB.fog[79].server[0] droppedJobsTotal 112
scalar FogNoLB.fog[80].dispatcher localJobs 5751
scalar FogNoLB.fog[80].dispatcher remoteJobs 0
scalar FogNoLB.fog[80].dispatcher probeQueries 0
scalar FogNoLB.fog[80].dispatcher probeAnswers 0
scalar FogNoLB.fog[80].dispatcher droppedJobsSLA 0
scalar FogNoLB.fog[80].dispatcher jobs_class_1 5751
scalar FogNoLB.fog[80].dispatcher localJobs_class_1 5751
scalar FogNoLB.fog[80].server[0] rho 0.87938404083252
scalar FogNoLB.fog[80].server[0] congestionRatio 0
scalar FogNoLB.fog[80].server[0] totalJobs 5751
scalar FogNoLB.fog[80].server[0] droppedJobsQueue 59
scalar FogNoLB.fog[80].server[0] droppedJobsTimout 2
scalar FogNoLB.fog[80].server[0] droppedJobsSLA 0
scalar FogNoLB.fog[80].server[0] droppedJobsTotal 61
scalar FogNoLB.fog[81].dispatcher localJobs 5883
scalar FogNoLB.fog[81].dispatcher remoteJobs 0
scalar FogNoLB.fog[81].dispatcher probeQueries 0
scalar FogNoLB.fog[81].dispatcher probeAnswers 0
scalar FogNoLB.fog[81].dispatcher droppedJobsSLA 0
scalar FogNoLB.fog[81].dispatcher jobs_class_1 5883
scalar FogNoLB.fog[81].dispatcher localJobs_class_1 5883
scalar FogNoLB.fog[81].server[0] rho 0.89101272821426
scalar FogNoLB.fog[81].server[0] congestionRatio 0
scalar FogNoLB.fog[81].server[0] totalJobs 5883
scalar FogNoLB.fog[81].server[0] droppedJobsQueue 123
scalar FogNoLB.fog[81].server[0] droppedJobsTimout 11
scalar FogNoLB.fog[81].server[0] droppedJobsSLA 0
scalar FogNoLB.fog[81].server[0] droppedJobsTotal 134
scalar FogNoLB.fog[82].dispatcher localJobs 5925
scalar FogNoLB.fog[82].dispatcher remoteJobs 0
scalar FogNoLB.fog[82].dispatcher probeQueries 0
scalar FogNoLB.fog[82].dispatcher probeAnswers 0
scalar FogNoLB.fog[82].dispatcher droppedJobsSLA 0
scalar FogNoLB.fog[82].dispatcher jobs_class_1 5925
scalar FogNoLB.fog[82].dispatcher localJobs_class_1 5925
scalar FogNoLB.fog[82].server[0] rho 0.8965852856636
scalar FogNoLB.fog[82].server[0] congestionRatio 0
scalar FogNoLB.fog[82].server[0] totalJobs 5925
scalar FogNoLB.fog[82].server[0] droppedJobsQueue 122
scalar FogNoLB.fog[82].server[0] droppedJobsTimout 9
scalar FogNoLB.fog[82].server[0] droppedJobsSLA 0
scalar FogNoLB.fog[82].server[0] droppedJobsTotal 131
scalar FogNoLB.fog[83].dispatcher localJobs 5850
scalar FogNoLB.fog[83].dispatcher remoteJobs 0
scalar FogNoLB.fog[83].dispatcher probeQueries 0
scalar FogNoLB.fog[83].dispatcher probeAnswers 0
scalar FogNoLB.fog[83].dispatcher droppedJobsSLA 0
scalar FogNoLB.fog[83].dispatcher jobs_class_1 5850
scalar FogNoLB.fog[83].dispatcher localJobs_class_1 5850
scalar FogNoLB.fog[83].server[0] rho 0.88866955041885
scalar FogNoLB.fog[83].server[0] congestionRatio 0
scalar FogNoLB.fog[83].server[0] totalJobs 5850
scalar FogNoLB.fog[83].server[0] droppedJobsQueue 95
scalar FogNoLB.fog[83].server[0] droppedJobsTimout 8
scalar FogNoLB.fog[83].server[0] droppedJobsSLA 0
scalar FogNoLB.fog[83].server[0] droppedJobsTotal 103
scalar FogNoLB.fog[84].dispatcher localJobs 6009
scalar FogNoLB.fog[84].dispatcher remoteJobs 0
scalar FogNoLB.fog[84].dispatcher probeQueries 0
scalar FogNoLB.fog[84].dispatcher probeAnswers 0
scalar FogNoLB.fog[84].dispatcher droppedJobsSLA 0
scalar FogNoLB.fog[84].dispatcher jobs_class_1 6009
scalar FogNoLB.fog[84].dispatcher localJobs_class_1 6009
scalar FogNoLB.fog[84].server[0] rho 0.90420025587082
scalar FogNoLB.fog[84].server[0] congestionRatio 0
scalar FogNoLB.fog[84].server[0] totalJobs 6009
scalar FogNoLB.fog[84].server[0] droppedJobsQueue 152
scalar FogNoLB.fog[84].server[0] droppedJobsTimout 12
scalar FogNoLB.fog[84].server[0] droppedJobsSLA 0
scalar FogNoLB.fog[84].server[0] droppedJobsTotal 164
scalar FogNoLB.fog[85].dispatcher localJobs 5767
scalar FogNoLB.fog[85].dispatcher remoteJobs 0
scalar FogNoLB.fog[85].dispatcher probeQueries 0
scalar FogNoLB.fog[85].dispatcher probeAnswers 0
scalar FogNoLB.fog[85].dispatcher droppedJobsSLA 0
scalar FogNoLB.fog[85].dispatcher jobs_class_1 5767
scalar FogNoLB.fog[85].dispatcher localJobs_class_1 5767
scalar FogNoLB.fog[85].server[0] rho 0.87632530927658
scalar FogNoLB.fog[85].server[0] congestionRatio 0
scalar FogNoLB.fog[85].server[0] totalJobs 5767
scalar FogNoLB.fog[85].server[0] droppedJobsQueue 98
scalar FogNoLB.fog[85].server[0] droppedJobsTimout 6
scalar FogNoLB.fog[85].server[0] droppedJobsSLA 0
scalar FogNoLB.fog[85].server[0] droppedJobsTotal 104
scalar FogNoLB.fog[86].dispatcher localJobs 5900
scalar FogNoLB.fog[86].dispatcher remoteJobs 0
scalar FogNoLB.fog[86].dispatcher probeQueries 0
scalar FogNoLB.fog[86].dispatcher probeAnswers 0
scalar FogNoLB.fog[86].dispatcher droppedJobsSLA 0
scalar FogNoLB.fog[86].dispatcher jobs_class_1 5900
scalar FogNoLB.fog[86].dispatcher localJobs_class_1 5900
scalar FogNoLB.fog[86].server[0] rho 0.89429020881653
scalar FogNoLB.fog[86].server[0] congestionRatio 0
scalar FogNoLB.fog[86].server[0] totalJobs 5900
scalar FogNoLB.fog[86].server[0] droppedJobsQueue 118
scalar FogNoLB.fog[86].server[0] droppedJobsTimout 7
scalar FogNoLB.fog[86].server[0] droppedJobsSLA 0
scalar FogNoLB.fog[86].server[0] droppedJobsTotal 125
scalar FogNoLB.fog[87].dispatcher localJobs 5849
scalar FogNoLB.fog[87].dispatcher remoteJobs 0
scalar FogNoLB.fog[87].dispatcher probeQueries 0
scalar FogNoLB.fog[87].dispatcher probeAnswers 0
scalar FogNoLB.fog[87].dispatcher droppedJobsSLA 0
scalar FogNoLB.fog[87].dispatcher jobs_class_1 5849
scalar FogNoLB.fog[87].dispatcher localJobs_class_1 5849
scalar FogNoLB.fog[87].server[0] rho 0.88992285728455
scalar FogNoLB.fog[87].server[0] congestionRatio 0
scalar FogNoLB.fog[87].server[0] totalJobs 5849
scalar FogNoLB.fog[87].server[0] droppedJobsQueue 91
scalar FogNoLB.fog[87].server[0] droppedJobsTimout 8
scalar FogNoLB.fog[87].server[0] droppedJobsSLA 0
scalar FogNoLB.fog[87].server[0] droppedJobsTotal 99
scalar FogNoLB.fog[88].dispatcher localJobs 5880
scalar FogNoLB.fog[88].dispatcher remoteJobs 0
scalar FogNoLB.fog[88].dispatcher probeQueries 0
scalar FogNoLB.fog[88].dispatcher probeAnswers 0
scalar FogNoLB.fog[88].dispatcher droppedJobsSLA 0
scalar FogNoLB.fog[88].dispatcher jobs_class_1 5880
scalar FogNoLB.fog[88].dispatcher localJobs_class_1 5880
scalar FogNoLB.fog[88].server[0] rho 0.88642871379852
scalar FogNoLB.fog[88].server[0] congestionRatio 0
scalar FogNoLB.fog[88].server[0] totalJobs 5880
scalar FogNoLB.fog[88].server[0] droppedJobsQueue 141
scalar FogNoLB.fog[88].server[0] droppedJobsTimout 8
scalar FogNoLB.fog[88].server[0] droppedJobsSLA 0
scalar FogNoLB.fog[88].server[0] droppedJobsTotal 149
scalar FogNoLB.fog[89].dispatcher localJobs 5760
scalar FogNoLB.fog[89].dispatcher remoteJobs 0
scalar FogNoLB.fog[89].dispatcher probeQueries 0
scalar FogNoLB.fog[89].dispatcher probeAnswers 0
scalar FogNoLB.fog[89].dispatcher droppedJobsSLA 0
scalar FogNoLB.fog[89].dispatcher jobs_class_1 5760
scalar FogNoLB.fog[89].dispatcher localJobs_class_1 5760
scalar FogNoLB.fog[89].server[0] rho 0.87541842460632
scalar FogNoLB.fog[89].server[0] congestionRatio 0
scalar FogNoLB.fog[89].server[0] totalJobs 5760
scalar FogNoLB.fog[89].server[0] droppedJobsQueue 97
scalar FogNoLB.fog[89].server[0] droppedJobsTimout 9
scalar FogNoLB.fog[89].server[0] droppedJobsSLA 0
scalar FogNoLB.fog[89].server[0] droppedJobsTotal 106
scalar FogNoLB.fog[90].dispatcher localJobs 5710
scalar FogNoLB.fog[90].dispatcher remoteJobs 0
scalar FogNoLB.fog[90].dispatcher probeQueries 0
scalar FogNoLB.fog[90].dispatcher probeAnswers 0
scalar FogNoLB.fog[90].dispatcher droppedJobsSLA 0
scalar FogNoLB.fog[90].dispatcher jobs_class_1 5710
scalar FogNoLB.fog[90].dispatcher localJobs_class_1 5710
scalar FogNoLB.fog[90].server[0] rho 0.87189674377441
scalar FogNoLB.fog[90].server[0] congestionRatio 0
scalar FogNoLB.fog[90].server[0] totalJobs 5710
scalar FogNoLB.fog[90].server[0] droppedJobsQueue 72
scalar FogNoLB.fog[90].server[0] droppedJobsTimout 5
scalar FogNoLB.fog[90].server[0] droppedJobsSLA 0
scalar FogNoLB.fog[90].server[0] droppedJobsTotal 77
scalar FogNoLB.fog[91].dispatcher localJobs 5843
scalar FogNoLB.fog[91].dispatcher remoteJobs 0
scalar FogNoLB.fog[91].dispatcher probeQueries 0
scalar FogNoLB.fog[91].dispatcher probeAnswers 0
scalar FogNoLB.fog[91].dispatcher droppedJobsSLA 0
scalar FogNoLB.fog[91].dispatcher jobs_class_1 5843
scalar FogNoLB.fog[91].dispatcher localJobs_class_1 5843
scalar FogNoLB.fog[91].server[0] rho 0.8852835893631
scalar FogNoLB.fog[91].server[0] congestionRatio 0
scalar FogNoLB.fog[91].server[0] totalJobs 5843
scalar FogNoLB.fog[91].server[0] droppedJobsQueue 112
scalar FogNoLB.fog[91].server[0] droppedJobsTimout 13
scalar FogNoLB.fog[91].server[0] droppedJobsSLA 0
scalar FogNoLB.fog[91].server[0] droppedJobsTotal 125
scalar FogNoLB.fog[92].dispatcher localJobs 5820
scalar FogNoLB.fog[92].dispatcher remoteJobs 0
scalar FogNoLB.fog[92].dispatcher probeQueries 0
scalar FogNoLB.fog[92].dispatcher probeAnswers 0
scalar FogNoLB.fog[92].dispatcher droppedJobsSLA 0
scalar FogNoLB.fog[92].dispatcher jobs_class_1 5820
scalar FogNoLB.fog[92].dispatcher localJobs_class_1 5820
scalar FogNoLB.fog[92].server[0] rho 0.88504791259766
scalar FogNoLB.fog[92].server[0] congestionRatio 0
scalar FogNoLB.fog[92].server[0] totalJobs 5820
scalar FogNoLB.fog[92].server[0] droppedJobsQueue 92
scalar FogNoLB.fog[92].server[0] droppedJobsTimout 1
scalar FogNoLB.fog[92].server[0] droppedJobsSLA 0
scalar FogNoLB.fog[92].server[0] droppedJobsTotal 93
scalar FogNoLB.fog[93].dispatcher localJobs 5895
scalar FogNoLB.fog[93].dispatcher remoteJobs 0
scalar FogNoLB.fog[93].dispatcher probeQueries 0
scalar FogNoLB.fog[93].dispatcher probeAnswers 0
scalar FogNoLB.fog[93].dispatcher droppedJobsSLA 0
scalar FogNoLB.fog[93].dispatcher jobs_class_1 5895
scalar FogNoLB.fog[93].dispatcher localJobs_class_1 5895
scalar FogNoLB.fog[93].server[0] rho 0.899154484272
scalar FogNoLB.fog[93].server[0] congestionRatio 0
scalar FogNoLB.fog[93].server[0] totalJobs 5895
scalar FogNoLB.fog[93].server[0] droppedJobsQueue 79
scalar FogNoLB.fog[93].server[0] droppedJobsTimout 2
scalar FogNoLB.fog[93].server[0] droppedJobsSLA 0
scalar FogNoLB.fog[93].server[0] droppedJobsTotal 81
scalar FogNoLB.fog[94].dispatcher localJobs 5762
scalar FogNoLB.fog[94].dispatcher remoteJobs 0
scalar FogNoLB.fog[94].dispatcher probeQueries 0
scalar FogNoLB.fog[94].dispatcher probeAnswers 0
scalar FogNoLB.fog[94].dispatcher droppedJobsSLA 0
scalar FogNoLB.fog[94].dispatcher jobs_class_1 5762
scalar FogNoLB.fog[94].dispatcher localJobs_class_1 5762
scalar FogNoLB.fog[94].server[0] rho 0.87736254930496
scalar FogNoLB.fog[94].server[0] congestionRatio 0
scalar FogNoLB.fog[94].server[0] totalJobs 5762
scalar FogNoLB.fog[94].server[0] droppedJobsQueue 87
scalar FogNoLB.fog[94].server[0] droppedJobsTimout 4
scalar FogNoLB.fog[94].server[0] droppedJobsSLA 0
scalar FogNoLB.fog[94].server[0] droppedJobsTotal 91
scalar FogNoLB.fog[95].dispatcher localJobs 5852
scalar FogNoLB.fog[95].dispatcher remoteJobs 0
scalar FogNoLB.fog[95].dispatcher probeQueries 0
scalar FogNoLB.fog[95].dispatcher probeAnswers 0
scalar FogNoLB.fog[95].dispatcher droppedJobsSLA 0
scalar FogNoLB.fog[95].dispatcher jobs_class_1 5852
scalar FogNoLB.fog[95].dispatcher localJobs_class_1 5852
scalar FogNoLB.fog[95].server[0] rho 0.88915824890137
scalar FogNoLB.fog[95].server[0] congestionRatio 0
scalar FogNoLB.fog[95].server[0] totalJobs 5852
scalar FogNoLB.fog[95].server[0] droppedJobsQueue 102
scalar FogNoLB.fog[95].server[0] droppedJobsTimout 4
scalar FogNoLB.fog[95].server[0] droppedJobsSLA 0
scalar FogNoLB.fog[95].server[0] droppedJobsTotal 106
scalar FogNoLB.fog[96].dispatcher localJobs 5764
scalar FogNoLB.fog[96].dispatcher remoteJobs 0
scalar FogNoLB.fog[96].dispatcher probeQueries 0
scalar FogNoLB.fog[96].dispatcher probeAnswers 0
scalar FogNoLB.fog[96].dispatcher droppedJobsSLA 0
scalar FogNoLB.fog[96].dispatcher jobs_class_1 5764
scalar FogNoLB.fog[96].dispatcher localJobs_class_1 5764
scalar FogNoLB.fog[96].server[0] rho 0.88131070137024
scalar FogNoLB.fog[96].server[0] congestionRatio 0
scalar FogNoLB.fog[96].server[0] totalJobs 5764
scalar FogNoLB.fog[96].server[0] droppedJobsQueue 62
scalar FogNoLB.fog[96].server[0] droppedJobsTimout 4
scalar FogNoLB.fog[96].server[0] droppedJobsSLA 0
scalar FogNoLB.fog[96].server[0] droppedJobsTotal 66
scalar FogNoLB.fog[97].dispatcher localJobs 5800
scalar FogNoLB.fog[97].dispatcher remoteJobs 0
scalar FogNoLB.fog[97].dispatcher probeQueries 0
scalar FogNoLB.fog[97].dispatcher probeAnswers 0
scalar FogNoLB.fog[97].dispatcher droppedJobsSLA 0
scalar FogNoLB.fog[97].dispatcher jobs_class_1 5800
scalar FogNoLB.fog[97].dispatcher localJobs_class_1 5800
scalar FogNoLB.fog[97].server[0] rho 0.8795468211174
scalar FogNoLB.fog[97].server[0] congestionRatio 0
scalar FogNoLB.fog[97].server[0] totalJobs 5800
scalar FogNoLB.fog[97].server[0] droppedJobsQueue 111
scalar FogNoLB.fog[97].server[0] droppedJobsTimout 3
scalar FogNoLB.fog[97].server[0] droppedJobsSLA 0
scalar FogNoLB.fog[97].server[0] droppedJobsTotal 114
scalar FogNoLB.fog[98].dispatcher localJobs 5702
scalar FogNoLB.fog[98].dispatcher remoteJobs 0
scalar FogNoLB.fog[98].dispatcher probeQueries 0
scalar FogNoLB.fog[98].dispatcher probeAnswers 0
scalar FogNoLB.fog[98].dispatcher droppedJobsSLA 0
scalar FogNoLB.fog[98].dispatcher jobs_class_1 5702
scalar FogNoLB.fog[98].dispatcher localJobs_class_1 5702
scalar FogNoLB.fog[98].server[0] rho 0.86741256713867
scalar FogNoLB.fog[98].server[0] congestionRatio 0
scalar FogNoLB.fog[98].server[0] totalJobs 5702
scalar FogNoLB.fog[98].server[0] droppedJobsQueue 85
scalar FogNoLB.fog[98].server[0] droppedJobsTimout 5
scalar FogNoLB.fog[98].server[0] droppedJobsSLA 0
scalar FogNoLB.fog[98].server[0] droppedJobsTotal 90
scalar FogNoLB.fog[99].dispatcher localJobs 5747
scalar FogNoLB.fog[99].dispatcher remoteJobs 0
scalar FogNoLB.fog[99].dispatcher probeQueries 0
scalar FogNoLB.fog[99].dispatcher probeAnswers 0
scalar FogNoLB.fog[99].dispatcher droppedJobsSLA 0
scalar FogNoLB.fog[99].dispatcher jobs_class_1 5747
scalar FogNoLB.fog[99].dispatcher localJobs_class_1 5747
scalar FogNoLB.fog[99].server[0] rho 0.87945294380188
scalar FogNoLB.fog[99].server[0] congestionRatio 0
scalar FogNoLB.fog[99].server[0] totalJobs 5747
scalar FogNoLB.fog[99].server[0] droppedJobsQueue 54
scalar FogNoLB.fog[99].server[0] droppedJobsTimout 0
scalar FogNoLB.fog[99].server[0] droppedJobsSLA 0
scalar FogNoLB.fog[99].server[0] droppedJobsTotal 54
scalar FogNoLB.sink avg_responseTime_1 6.5608435003128
scalar FogNoLB.sink p90_responseTime_1 1.51966261726
scalar FogNoLB.sink med_responseTime_1 1.51966261726
scalar FogNoLB.sink avg_delayTime_1 0
scalar FogNoLB.sink p90_delayTime_1 0
scalar FogNoLB.sink med_delayTime_1 0
scalar FogNoLB.sink avg_queuingTime_1 4.8908485551153
scalar FogNoLB.sink p90_queuingTime_1 0
scalar FogNoLB.sink med_queuingTime_1 0
scalar FogNoLB.sink avg_serviceTime_1 1.6699949451976
scalar FogNoLB.sink p90_serviceTime_1 1.506737645026
scalar FogNoLB.sink med_serviceTime_1 1.506737645026
scalar FogNoLB.sink avg_balancerTime_1 0
scalar FogNoLB.sink p90_balancerTime_1 0
scalar FogNoLB.sink med_balancerTime_1 0
scalar FogNoLB.sink avg_balancerCount_1 1
scalar FogNoLB.sink p90_balancerCount_1 1
scalar FogNoLB.sink med_balancerCount_1 1

