version 2
run Fog-mul_001-rho_05-thr_4-0-20190711-17:27:19-47512
attr configname Fog-mul_001-rho_05-thr_4
attr datetime 20190711-17:27:19
attr experiment Fog-mul_001-rho_05-thr_4
attr inifile FogQueueLen.ini
attr iterationvars ""
attr iterationvarsf ""
attr measurement ""
attr network FogNoLB
attr processid 47512
attr repetition 0
attr replication #0
attr resultdir results
attr runnumber 0
attr seedset 0
param FogNoLB.proctimeMul 0.01
param FogNoLB.rho 0.5
param FogNoLB.fog[*].server[*].capacity 4
param FogNoLB.nSources 100
param FogNoLB.rho 0.9
param FogNoLB.proctimeMul 1.0
param FogNoLB.source[*].appId 1
param FogNoLB.fog[*].nServers 1
param FogNoLB.fog[*].dispatcher.fanOut 1
param FogNoLB.fog[*].server[*].timeSlice -1s
param FogNoLB.fog[*].server[*].capacity 5
param FogNoLB.fog[*].server[*].fifo true
param FogNoLB.fog[*].server[*].maxServiceTime -1s

scalar FogNoLB.fog[0].dispatcher localJobs 322928
scalar FogNoLB.fog[0].dispatcher remoteJobs 0
scalar FogNoLB.fog[0].dispatcher probeQueries 0
scalar FogNoLB.fog[0].dispatcher probeAnswers 0
scalar FogNoLB.fog[0].dispatcher droppedJobsSLA 0
scalar FogNoLB.fog[0].dispatcher jobs_class_1 322928
scalar FogNoLB.fog[0].dispatcher localJobs_class_1 322928
scalar FogNoLB.fog[0].server[0] rho 0.49823808670044
scalar FogNoLB.fog[0].server[0] congestionRatio 0
scalar FogNoLB.fog[0].server[0] totalJobs 322928
scalar FogNoLB.fog[0].server[0] droppedJobsQueue 706
scalar FogNoLB.fog[0].server[0] droppedJobsTimout 0
scalar FogNoLB.fog[0].server[0] droppedJobsSLA 0
scalar FogNoLB.fog[0].server[0] droppedJobsTotal 706
scalar FogNoLB.fog[1].dispatcher localJobs 322847
scalar FogNoLB.fog[1].dispatcher remoteJobs 0
scalar FogNoLB.fog[1].dispatcher probeQueries 0
scalar FogNoLB.fog[1].dispatcher probeAnswers 0
scalar FogNoLB.fog[1].dispatcher droppedJobsSLA 0
scalar FogNoLB.fog[1].dispatcher jobs_class_1 322847
scalar FogNoLB.fog[1].dispatcher localJobs_class_1 322847
scalar FogNoLB.fog[1].server[0] rho 0.49815562367439
scalar FogNoLB.fog[1].server[0] congestionRatio 0
scalar FogNoLB.fog[1].server[0] totalJobs 322847
scalar FogNoLB.fog[1].server[0] droppedJobsQueue 717
scalar FogNoLB.fog[1].server[0] droppedJobsTimout 0
scalar FogNoLB.fog[1].server[0] droppedJobsSLA 0
scalar FogNoLB.fog[1].server[0] droppedJobsTotal 717
scalar FogNoLB.fog[2].dispatcher localJobs 323394
scalar FogNoLB.fog[2].dispatcher remoteJobs 0
scalar FogNoLB.fog[2].dispatcher probeQueries 0
scalar FogNoLB.fog[2].dispatcher probeAnswers 0
scalar FogNoLB.fog[2].dispatcher droppedJobsSLA 0
scalar FogNoLB.fog[2].dispatcher jobs_class_1 323394
scalar FogNoLB.fog[2].dispatcher localJobs_class_1 323394
scalar FogNoLB.fog[2].server[0] rho 0.49900040030479
scalar FogNoLB.fog[2].server[0] congestionRatio 0
scalar FogNoLB.fog[2].server[0] totalJobs 323394
scalar FogNoLB.fog[2].server[0] droppedJobsQueue 703
scalar FogNoLB.fog[2].server[0] droppedJobsTimout 0
scalar FogNoLB.fog[2].server[0] droppedJobsSLA 0
scalar FogNoLB.fog[2].server[0] droppedJobsTotal 703
scalar FogNoLB.fog[3].dispatcher localJobs 323031
scalar FogNoLB.fog[3].dispatcher remoteJobs 0
scalar FogNoLB.fog[3].dispatcher probeQueries 0
scalar FogNoLB.fog[3].dispatcher probeAnswers 0
scalar FogNoLB.fog[3].dispatcher droppedJobsSLA 0
scalar FogNoLB.fog[3].dispatcher jobs_class_1 323031
scalar FogNoLB.fog[3].dispatcher localJobs_class_1 323031
scalar FogNoLB.fog[3].server[0] rho 0.49850231409073
scalar FogNoLB.fog[3].server[0] congestionRatio 0
scalar FogNoLB.fog[3].server[0] totalJobs 323031
scalar FogNoLB.fog[3].server[0] droppedJobsQueue 645
scalar FogNoLB.fog[3].server[0] droppedJobsTimout 0
scalar FogNoLB.fog[3].server[0] droppedJobsSLA 0
scalar FogNoLB.fog[3].server[0] droppedJobsTotal 645
scalar FogNoLB.fog[4].dispatcher localJobs 323013
scalar FogNoLB.fog[4].dispatcher remoteJobs 0
scalar FogNoLB.fog[4].dispatcher probeQueries 0
scalar FogNoLB.fog[4].dispatcher probeAnswers 0
scalar FogNoLB.fog[4].dispatcher droppedJobsSLA 0
scalar FogNoLB.fog[4].dispatcher jobs_class_1 323013
scalar FogNoLB.fog[4].dispatcher localJobs_class_1 323013
scalar FogNoLB.fog[4].server[0] rho 0.49837726354599
scalar FogNoLB.fog[4].server[0] congestionRatio 0
scalar FogNoLB.fog[4].server[0] totalJobs 323013
scalar FogNoLB.fog[4].server[0] droppedJobsQueue 680
scalar FogNoLB.fog[4].server[0] droppedJobsTimout 0
scalar FogNoLB.fog[4].server[0] droppedJobsSLA 0
scalar FogNoLB.fog[4].server[0] droppedJobsTotal 680
scalar FogNoLB.fog[5].dispatcher localJobs 323513
scalar FogNoLB.fog[5].dispatcher remoteJobs 0
scalar FogNoLB.fog[5].dispatcher probeQueries 0
scalar FogNoLB.fog[5].dispatcher probeAnswers 0
scalar FogNoLB.fog[5].dispatcher droppedJobsSLA 0
scalar FogNoLB.fog[5].dispatcher jobs_class_1 323513
scalar FogNoLB.fog[5].dispatcher localJobs_class_1 323513
scalar FogNoLB.fog[5].server[0] rho 0.4991050362587
scalar FogNoLB.fog[5].server[0] congestionRatio 0
scalar FogNoLB.fog[5].server[0] totalJobs 323513
scalar FogNoLB.fog[5].server[0] droppedJobsQueue 728
scalar FogNoLB.fog[5].server[0] droppedJobsTimout 0
scalar FogNoLB.fog[5].server[0] droppedJobsSLA 0
scalar FogNoLB.fog[5].server[0] droppedJobsTotal 728
scalar FogNoLB.fog[6].dispatcher localJobs 324562
scalar FogNoLB.fog[6].dispatcher remoteJobs 0
scalar FogNoLB.fog[6].dispatcher probeQueries 0
scalar FogNoLB.fog[6].dispatcher probeAnswers 0
scalar FogNoLB.fog[6].dispatcher droppedJobsSLA 0
scalar FogNoLB.fog[6].dispatcher jobs_class_1 324562
scalar FogNoLB.fog[6].dispatcher localJobs_class_1 324562
scalar FogNoLB.fog[6].server[0] rho 0.50076913833618
scalar FogNoLB.fog[6].server[0] congestionRatio 0
scalar FogNoLB.fog[6].server[0] totalJobs 324562
scalar FogNoLB.fog[6].server[0] droppedJobsQueue 693
scalar FogNoLB.fog[6].server[0] droppedJobsTimout 0
scalar FogNoLB.fog[6].server[0] droppedJobsSLA 0
scalar FogNoLB.fog[6].server[0] droppedJobsTotal 693
scalar FogNoLB.fog[7].dispatcher localJobs 324219
scalar FogNoLB.fog[7].dispatcher remoteJobs 0
scalar FogNoLB.fog[7].dispatcher probeQueries 0
scalar FogNoLB.fog[7].dispatcher probeAnswers 0
scalar FogNoLB.fog[7].dispatcher droppedJobsSLA 0
scalar FogNoLB.fog[7].dispatcher jobs_class_1 324219
scalar FogNoLB.fog[7].dispatcher localJobs_class_1 324219
scalar FogNoLB.fog[7].server[0] rho 0.50031661987305
scalar FogNoLB.fog[7].server[0] congestionRatio 0
scalar FogNoLB.fog[7].server[0] totalJobs 324219
scalar FogNoLB.fog[7].server[0] droppedJobsQueue 665
scalar FogNoLB.fog[7].server[0] droppedJobsTimout 0
scalar FogNoLB.fog[7].server[0] droppedJobsSLA 0
scalar FogNoLB.fog[7].server[0] droppedJobsTotal 665
scalar FogNoLB.fog[8].dispatcher localJobs 323607
scalar FogNoLB.fog[8].dispatcher remoteJobs 0
scalar FogNoLB.fog[8].dispatcher probeQueries 0
scalar FogNoLB.fog[8].dispatcher probeAnswers 0
scalar FogNoLB.fog[8].dispatcher droppedJobsSLA 0
scalar FogNoLB.fog[8].dispatcher jobs_class_1 323607
scalar FogNoLB.fog[8].dispatcher localJobs_class_1 323607
scalar FogNoLB.fog[8].server[0] rho 0.49928006529808
scalar FogNoLB.fog[8].server[0] congestionRatio 0
scalar FogNoLB.fog[8].server[0] totalJobs 323607
scalar FogNoLB.fog[8].server[0] droppedJobsQueue 731
scalar FogNoLB.fog[8].server[0] droppedJobsTimout 0
scalar FogNoLB.fog[8].server[0] droppedJobsSLA 0
scalar FogNoLB.fog[8].server[0] droppedJobsTotal 731
scalar FogNoLB.fog[9].dispatcher localJobs 323228
scalar FogNoLB.fog[9].dispatcher remoteJobs 0
scalar FogNoLB.fog[9].dispatcher probeQueries 0
scalar FogNoLB.fog[9].dispatcher probeAnswers 0
scalar FogNoLB.fog[9].dispatcher droppedJobsSLA 0
scalar FogNoLB.fog[9].dispatcher jobs_class_1 323228
scalar FogNoLB.fog[9].dispatcher localJobs_class_1 323228
scalar FogNoLB.fog[9].server[0] rho 0.4985993206501
scalar FogNoLB.fog[9].server[0] congestionRatio 0
scalar FogNoLB.fog[9].server[0] totalJobs 323228
scalar FogNoLB.fog[9].server[0] droppedJobsQueue 747
scalar FogNoLB.fog[9].server[0] droppedJobsTimout 0
scalar FogNoLB.fog[9].server[0] droppedJobsSLA 0
scalar FogNoLB.fog[9].server[0] droppedJobsTotal 747
scalar FogNoLB.fog[10].dispatcher localJobs 322942
scalar FogNoLB.fog[10].dispatcher remoteJobs 0
scalar FogNoLB.fog[10].dispatcher probeQueries 0
scalar FogNoLB.fog[10].dispatcher probeAnswers 0
scalar FogNoLB.fog[10].dispatcher droppedJobsSLA 0
scalar FogNoLB.fog[10].dispatcher jobs_class_1 322942
scalar FogNoLB.fog[10].dispatcher localJobs_class_1 322942
scalar FogNoLB.fog[10].server[0] rho 0.49823397397995
scalar FogNoLB.fog[10].server[0] congestionRatio 0
scalar FogNoLB.fog[10].server[0] totalJobs 322942
scalar FogNoLB.fog[10].server[0] droppedJobsQueue 733
scalar FogNoLB.fog[10].server[0] droppedJobsTimout 0
scalar FogNoLB.fog[10].server[0] droppedJobsSLA 0
scalar FogNoLB.fog[10].server[0] droppedJobsTotal 733
scalar FogNoLB.fog[11].dispatcher localJobs 322614
scalar FogNoLB.fog[11].dispatcher remoteJobs 0
scalar FogNoLB.fog[11].dispatcher probeQueries 0
scalar FogNoLB.fog[11].dispatcher probeAnswers 0
scalar FogNoLB.fog[11].dispatcher droppedJobsSLA 0
scalar FogNoLB.fog[11].dispatcher jobs_class_1 322614
scalar FogNoLB.fog[11].dispatcher localJobs_class_1 322614
scalar FogNoLB.fog[11].server[0] rho 0.49778941273689
scalar FogNoLB.fog[11].server[0] congestionRatio 0
scalar FogNoLB.fog[11].server[0] totalJobs 322614
scalar FogNoLB.fog[11].server[0] droppedJobsQueue 709
scalar FogNoLB.fog[11].server[0] droppedJobsTimout 0
scalar FogNoLB.fog[11].server[0] droppedJobsSLA 0
scalar FogNoLB.fog[11].server[0] droppedJobsTotal 709
scalar FogNoLB.fog[12].dispatcher localJobs 322796
scalar FogNoLB.fog[12].dispatcher remoteJobs 0
scalar FogNoLB.fog[12].dispatcher probeQueries 0
scalar FogNoLB.fog[12].dispatcher probeAnswers 0
scalar FogNoLB.fog[12].dispatcher droppedJobsSLA 0
scalar FogNoLB.fog[12].dispatcher jobs_class_1 322796
scalar FogNoLB.fog[12].dispatcher localJobs_class_1 322796
scalar FogNoLB.fog[12].server[0] rho 0.49812960624695
scalar FogNoLB.fog[12].server[0] congestionRatio 0
scalar FogNoLB.fog[12].server[0] totalJobs 322796
scalar FogNoLB.fog[12].server[0] droppedJobsQueue 640
scalar FogNoLB.fog[12].server[0] droppedJobsTimout 0
scalar FogNoLB.fog[12].server[0] droppedJobsSLA 0
scalar FogNoLB.fog[12].server[0] droppedJobsTotal 640
scalar FogNoLB.fog[13].dispatcher localJobs 322885
scalar FogNoLB.fog[13].dispatcher remoteJobs 0
scalar FogNoLB.fog[13].dispatcher probeQueries 0
scalar FogNoLB.fog[13].dispatcher probeAnswers 0
scalar FogNoLB.fog[13].dispatcher droppedJobsSLA 0
scalar FogNoLB.fog[13].dispatcher jobs_class_1 322885
scalar FogNoLB.fog[13].dispatcher localJobs_class_1 322885
scalar FogNoLB.fog[13].server[0] rho 0.49818071722984
scalar FogNoLB.fog[13].server[0] congestionRatio 0
scalar FogNoLB.fog[13].server[0] totalJobs 322885
scalar FogNoLB.fog[13].server[0] droppedJobsQueue 690
scalar FogNoLB.fog[13].server[0] droppedJobsTimout 0
scalar FogNoLB.fog[13].server[0] droppedJobsSLA 0
scalar FogNoLB.fog[13].server[0] droppedJobsTotal 690
scalar FogNoLB.fog[14].dispatcher localJobs 324183
scalar FogNoLB.fog[14].dispatcher remoteJobs 0
scalar FogNoLB.fog[14].dispatcher probeQueries 0
scalar FogNoLB.fog[14].dispatcher probeAnswers 0
scalar FogNoLB.fog[14].dispatcher droppedJobsSLA 0
scalar FogNoLB.fog[14].dispatcher jobs_class_1 324183
scalar FogNoLB.fog[14].dispatcher localJobs_class_1 324183
scalar FogNoLB.fog[14].server[0] rho 0.50017005205154
scalar FogNoLB.fog[14].server[0] congestionRatio 0
scalar FogNoLB.fog[14].server[0] totalJobs 324183
scalar FogNoLB.fog[14].server[0] droppedJobsQueue 713
scalar FogNoLB.fog[14].server[0] droppedJobsTimout 0
scalar FogNoLB.fog[14].server[0] droppedJobsSLA 0
scalar FogNoLB.fog[14].server[0] droppedJobsTotal 713
scalar FogNoLB.fog[15].dispatcher localJobs 323302
scalar FogNoLB.fog[15].dispatcher remoteJobs 0
scalar FogNoLB.fog[15].dispatcher probeQueries 0
scalar FogNoLB.fog[15].dispatcher probeAnswers 0
scalar FogNoLB.fog[15].dispatcher droppedJobsSLA 0
scalar FogNoLB.fog[15].dispatcher jobs_class_1 323302
scalar FogNoLB.fog[15].dispatcher localJobs_class_1 323302
scalar FogNoLB.fog[15].server[0] rho 0.4988260269165
scalar FogNoLB.fog[15].server[0] congestionRatio 0
scalar FogNoLB.fog[15].server[0] totalJobs 323302
scalar FogNoLB.fog[15].server[0] droppedJobsQueue 710
scalar FogNoLB.fog[15].server[0] droppedJobsTimout 0
scalar FogNoLB.fog[15].server[0] droppedJobsSLA 0
scalar FogNoLB.fog[15].server[0] droppedJobsTotal 710
scalar FogNoLB.fog[16].dispatcher localJobs 322444
scalar FogNoLB.fog[16].dispatcher remoteJobs 0
scalar FogNoLB.fog[16].dispatcher probeQueries 0
scalar FogNoLB.fog[16].dispatcher probeAnswers 0
scalar FogNoLB.fog[16].dispatcher droppedJobsSLA 0
scalar FogNoLB.fog[16].dispatcher jobs_class_1 322444
scalar FogNoLB.fog[16].dispatcher localJobs_class_1 322444
scalar FogNoLB.fog[16].server[0] rho 0.49758505821228
scalar FogNoLB.fog[16].server[0] congestionRatio 0
scalar FogNoLB.fog[16].server[0] totalJobs 322444
scalar FogNoLB.fog[16].server[0] droppedJobsQueue 666
scalar FogNoLB.fog[16].server[0] droppedJobsTimout 0
scalar FogNoLB.fog[16].server[0] droppedJobsSLA 0
scalar FogNoLB.fog[16].server[0] droppedJobsTotal 666
scalar FogNoLB.fog[17].dispatcher localJobs 322979
scalar FogNoLB.fog[17].dispatcher remoteJobs 0
scalar FogNoLB.fog[17].dispatcher probeQueries 0
scalar FogNoLB.fog[17].dispatcher probeAnswers 0
scalar FogNoLB.fog[17].dispatcher droppedJobsSLA 0
scalar FogNoLB.fog[17].dispatcher jobs_class_1 322979
scalar FogNoLB.fog[17].dispatcher localJobs_class_1 322979
scalar FogNoLB.fog[17].server[0] rho 0.49837702512741
scalar FogNoLB.fog[17].server[0] congestionRatio 0
scalar FogNoLB.fog[17].server[0] totalJobs 322979
scalar FogNoLB.fog[17].server[0] droppedJobsQueue 687
scalar FogNoLB.fog[17].server[0] droppedJobsTimout 0
scalar FogNoLB.fog[17].server[0] droppedJobsSLA 0
scalar FogNoLB.fog[17].server[0] droppedJobsTotal 687
scalar FogNoLB.fog[18].dispatcher localJobs 323532
scalar FogNoLB.fog[18].dispatcher remoteJobs 0
scalar FogNoLB.fog[18].dispatcher probeQueries 0
scalar FogNoLB.fog[18].dispatcher probeAnswers 0
scalar FogNoLB.fog[18].dispatcher droppedJobsSLA 0
scalar FogNoLB.fog[18].dispatcher jobs_class_1 323532
scalar FogNoLB.fog[18].dispatcher localJobs_class_1 323532
scalar FogNoLB.fog[18].server[0] rho 0.49919787049294
scalar FogNoLB.fog[18].server[0] congestionRatio 0
scalar FogNoLB.fog[18].server[0] totalJobs 323532
scalar FogNoLB.fog[18].server[0] droppedJobsQueue 698
scalar FogNoLB.fog[18].server[0] droppedJobsTimout 0
scalar FogNoLB.fog[18].server[0] droppedJobsSLA 0
scalar FogNoLB.fog[18].server[0] droppedJobsTotal 698
scalar FogNoLB.fog[19].dispatcher localJobs 323387
scalar FogNoLB.fog[19].dispatcher remoteJobs 0
scalar FogNoLB.fog[19].dispatcher probeQueries 0
scalar FogNoLB.fog[19].dispatcher probeAnswers 0
scalar FogNoLB.fog[19].dispatcher droppedJobsSLA 0
scalar FogNoLB.fog[19].dispatcher jobs_class_1 323387
scalar FogNoLB.fog[19].dispatcher localJobs_class_1 323387
scalar FogNoLB.fog[19].server[0] rho 0.49903044104576
scalar FogNoLB.fog[19].server[0] congestionRatio 0
scalar FogNoLB.fog[19].server[0] totalJobs 323387
scalar FogNoLB.fog[19].server[0] droppedJobsQueue 663
scalar FogNoLB.fog[19].server[0] droppedJobsTimout 0
scalar FogNoLB.fog[19].server[0] droppedJobsSLA 0
scalar FogNoLB.fog[19].server[0] droppedJobsTotal 663
scalar FogNoLB.fog[20].dispatcher localJobs 322079
scalar FogNoLB.fog[20].dispatcher remoteJobs 0
scalar FogNoLB.fog[20].dispatcher probeQueries 0
scalar FogNoLB.fog[20].dispatcher probeAnswers 0
scalar FogNoLB.fog[20].dispatcher droppedJobsSLA 0
scalar FogNoLB.fog[20].dispatcher jobs_class_1 322079
scalar FogNoLB.fog[20].dispatcher localJobs_class_1 322079
scalar FogNoLB.fog[20].server[0] rho 0.4968373477459
scalar FogNoLB.fog[20].server[0] congestionRatio 0
scalar FogNoLB.fog[20].server[0] totalJobs 322079
scalar FogNoLB.fog[20].server[0] droppedJobsQueue 779
scalar FogNoLB.fog[20].server[0] droppedJobsTimout 0
scalar FogNoLB.fog[20].server[0] droppedJobsSLA 0
scalar FogNoLB.fog[20].server[0] droppedJobsTotal 779
scalar FogNoLB.fog[21].dispatcher localJobs 322244
scalar FogNoLB.fog[21].dispatcher remoteJobs 0
scalar FogNoLB.fog[21].dispatcher probeQueries 0
scalar FogNoLB.fog[21].dispatcher probeAnswers 0
scalar FogNoLB.fog[21].dispatcher droppedJobsSLA 0
scalar FogNoLB.fog[21].dispatcher jobs_class_1 322244
scalar FogNoLB.fog[21].dispatcher localJobs_class_1 322244
scalar FogNoLB.fog[21].server[0] rho 0.49726325273514
scalar FogNoLB.fog[21].server[0] congestionRatio 0
scalar FogNoLB.fog[21].server[0] totalJobs 322244
scalar FogNoLB.fog[21].server[0] droppedJobsQueue 664
scalar FogNoLB.fog[21].server[0] droppedJobsTimout 0
scalar FogNoLB.fog[21].server[0] droppedJobsSLA 0
scalar FogNoLB.fog[21].server[0] droppedJobsTotal 664
scalar FogNoLB.fog[22].dispatcher localJobs 323085
scalar FogNoLB.fog[22].dispatcher remoteJobs 0
scalar FogNoLB.fog[22].dispatcher probeQueries 0
scalar FogNoLB.fog[22].dispatcher probeAnswers 0
scalar FogNoLB.fog[22].dispatcher droppedJobsSLA 0
scalar FogNoLB.fog[22].dispatcher jobs_class_1 323085
scalar FogNoLB.fog[22].dispatcher localJobs_class_1 323085
scalar FogNoLB.fog[22].server[0] rho 0.49848532676697
scalar FogNoLB.fog[22].server[0] congestionRatio 0
scalar FogNoLB.fog[22].server[0] totalJobs 323085
scalar FogNoLB.fog[22].server[0] droppedJobsQueue 728
scalar FogNoLB.fog[22].server[0] droppedJobsTimout 0
scalar FogNoLB.fog[22].server[0] droppedJobsSLA 0
scalar FogNoLB.fog[22].server[0] droppedJobsTotal 728
scalar FogNoLB.fog[23].dispatcher localJobs 324150
scalar FogNoLB.fog[23].dispatcher remoteJobs 0
scalar FogNoLB.fog[23].dispatcher probeQueries 0
scalar FogNoLB.fog[23].dispatcher probeAnswers 0
scalar FogNoLB.fog[23].dispatcher droppedJobsSLA 0
scalar FogNoLB.fog[23].dispatcher jobs_class_1 324150
scalar FogNoLB.fog[23].dispatcher localJobs_class_1 324150
scalar FogNoLB.fog[23].server[0] rho 0.5000935792923
scalar FogNoLB.fog[23].server[0] congestionRatio 0
scalar FogNoLB.fog[23].server[0] totalJobs 324150
scalar FogNoLB.fog[23].server[0] droppedJobsQueue 739
scalar FogNoLB.fog[23].server[0] droppedJobsTimout 0
scalar FogNoLB.fog[23].server[0] droppedJobsSLA 0
scalar FogNoLB.fog[23].server[0] droppedJobsTotal 739
scalar FogNoLB.fog[24].dispatcher localJobs 324106
scalar FogNoLB.fog[24].dispatcher remoteJobs 0
scalar FogNoLB.fog[24].dispatcher probeQueries 0
scalar FogNoLB.fog[24].dispatcher probeAnswers 0
scalar FogNoLB.fog[24].dispatcher droppedJobsSLA 0
scalar FogNoLB.fog[24].dispatcher jobs_class_1 324106
scalar FogNoLB.fog[24].dispatcher localJobs_class_1 324106
scalar FogNoLB.fog[24].server[0] rho 0.50007092952728
scalar FogNoLB.fog[24].server[0] congestionRatio 0
scalar FogNoLB.fog[24].server[0] totalJobs 324106
scalar FogNoLB.fog[24].server[0] droppedJobsQueue 701
scalar FogNoLB.fog[24].server[0] droppedJobsTimout 0
scalar FogNoLB.fog[24].server[0] droppedJobsSLA 0
scalar FogNoLB.fog[24].server[0] droppedJobsTotal 701
scalar FogNoLB.fog[25].dispatcher localJobs 323037
scalar FogNoLB.fog[25].dispatcher remoteJobs 0
scalar FogNoLB.fog[25].dispatcher probeQueries 0
scalar FogNoLB.fog[25].dispatcher probeAnswers 0
scalar FogNoLB.fog[25].dispatcher droppedJobsSLA 0
scalar FogNoLB.fog[25].dispatcher jobs_class_1 323037
scalar FogNoLB.fog[25].dispatcher localJobs_class_1 323037
scalar FogNoLB.fog[25].server[0] rho 0.49846285581589
scalar FogNoLB.fog[25].server[0] congestionRatio 0
scalar FogNoLB.fog[25].server[0] totalJobs 323037
scalar FogNoLB.fog[25].server[0] droppedJobsQueue 667
scalar FogNoLB.fog[25].server[0] droppedJobsTimout 0
scalar FogNoLB.fog[25].server[0] droppedJobsSLA 0
scalar FogNoLB.fog[25].server[0] droppedJobsTotal 667
scalar FogNoLB.fog[26].dispatcher localJobs 323658
scalar FogNoLB.fog[26].dispatcher remoteJobs 0
scalar FogNoLB.fog[26].dispatcher probeQueries 0
scalar FogNoLB.fog[26].dispatcher probeAnswers 0
scalar FogNoLB.fog[26].dispatcher droppedJobsSLA 0
scalar FogNoLB.fog[26].dispatcher jobs_class_1 323658
scalar FogNoLB.fog[26].dispatcher localJobs_class_1 323658
scalar FogNoLB.fog[26].server[0] rho 0.49942740797997
scalar FogNoLB.fog[26].server[0] congestionRatio 0
scalar FogNoLB.fog[26].server[0] totalJobs 323658
scalar FogNoLB.fog[26].server[0] droppedJobsQueue 685
scalar FogNoLB.fog[26].server[0] droppedJobsTimout 0
scalar FogNoLB.fog[26].server[0] droppedJobsSLA 0
scalar FogNoLB.fog[26].server[0] droppedJobsTotal 685
scalar FogNoLB.fog[27].dispatcher localJobs 324218
scalar FogNoLB.fog[27].dispatcher remoteJobs 0
scalar FogNoLB.fog[27].dispatcher probeQueries 0
scalar FogNoLB.fog[27].dispatcher probeAnswers 0
scalar FogNoLB.fog[27].dispatcher droppedJobsSLA 0
scalar FogNoLB.fog[27].dispatcher jobs_class_1 324218
scalar FogNoLB.fog[27].dispatcher localJobs_class_1 324218
scalar FogNoLB.fog[27].server[0] rho 0.50017136335373
scalar FogNoLB.fog[27].server[0] congestionRatio 0
scalar FogNoLB.fog[27].server[0] totalJobs 324218
scalar FogNoLB.fog[27].server[0] droppedJobsQueue 739
scalar FogNoLB.fog[27].server[0] droppedJobsTimout 0
scalar FogNoLB.fog[27].server[0] droppedJobsSLA 0
scalar FogNoLB.fog[27].server[0] droppedJobsTotal 739
scalar FogNoLB.fog[28].dispatcher localJobs 322612
scalar FogNoLB.fog[28].dispatcher remoteJobs 0
scalar FogNoLB.fog[28].dispatcher probeQueries 0
scalar FogNoLB.fog[28].dispatcher probeAnswers 0
scalar FogNoLB.fog[28].dispatcher droppedJobsSLA 0
scalar FogNoLB.fog[28].dispatcher jobs_class_1 322612
scalar FogNoLB.fog[28].dispatcher localJobs_class_1 322612
scalar FogNoLB.fog[28].server[0] rho 0.49780800938606
scalar FogNoLB.fog[28].server[0] congestionRatio 0
scalar FogNoLB.fog[28].server[0] totalJobs 322612
scalar FogNoLB.fog[28].server[0] droppedJobsQueue 661
scalar FogNoLB.fog[28].server[0] droppedJobsTimout 0
scalar FogNoLB.fog[28].server[0] droppedJobsSLA 0
scalar FogNoLB.fog[28].server[0] droppedJobsTotal 661
scalar FogNoLB.fog[29].dispatcher localJobs 323990
scalar FogNoLB.fog[29].dispatcher remoteJobs 0
scalar FogNoLB.fog[29].dispatcher probeQueries 0
scalar FogNoLB.fog[29].dispatcher probeAnswers 0
scalar FogNoLB.fog[29].dispatcher droppedJobsSLA 0
scalar FogNoLB.fog[29].dispatcher jobs_class_1 323990
scalar FogNoLB.fog[29].dispatcher localJobs_class_1 323990
scalar FogNoLB.fog[29].server[0] rho 0.49990999698639
scalar FogNoLB.fog[29].server[0] congestionRatio 0
scalar FogNoLB.fog[29].server[0] totalJobs 323990
scalar FogNoLB.fog[29].server[0] droppedJobsQueue 693
scalar FogNoLB.fog[29].server[0] droppedJobsTimout 0
scalar FogNoLB.fog[29].server[0] droppedJobsSLA 0
scalar FogNoLB.fog[29].server[0] droppedJobsTotal 693
scalar FogNoLB.fog[30].dispatcher localJobs 323167
scalar FogNoLB.fog[30].dispatcher remoteJobs 0
scalar FogNoLB.fog[30].dispatcher probeQueries 0
scalar FogNoLB.fog[30].dispatcher probeAnswers 0
scalar FogNoLB.fog[30].dispatcher droppedJobsSLA 0
scalar FogNoLB.fog[30].dispatcher jobs_class_1 323167
scalar FogNoLB.fog[30].dispatcher localJobs_class_1 323167
scalar FogNoLB.fog[30].server[0] rho 0.4986457824707
scalar FogNoLB.fog[30].server[0] congestionRatio 0
scalar FogNoLB.fog[30].server[0] totalJobs 323167
scalar FogNoLB.fog[30].server[0] droppedJobsQueue 702
scalar FogNoLB.fog[30].server[0] droppedJobsTimout 0
scalar FogNoLB.fog[30].server[0] droppedJobsSLA 0
scalar FogNoLB.fog[30].server[0] droppedJobsTotal 702
scalar FogNoLB.fog[31].dispatcher localJobs 323098
scalar FogNoLB.fog[31].dispatcher remoteJobs 0
scalar FogNoLB.fog[31].dispatcher probeQueries 0
scalar FogNoLB.fog[31].dispatcher probeAnswers 0
scalar FogNoLB.fog[31].dispatcher droppedJobsSLA 0
scalar FogNoLB.fog[31].dispatcher jobs_class_1 323098
scalar FogNoLB.fog[31].dispatcher localJobs_class_1 323098
scalar FogNoLB.fog[31].server[0] rho 0.4985679090023
scalar FogNoLB.fog[31].server[0] congestionRatio 0
scalar FogNoLB.fog[31].server[0] totalJobs 323098
scalar FogNoLB.fog[31].server[0] droppedJobsQueue 680
scalar FogNoLB.fog[31].server[0] droppedJobsTimout 0
scalar FogNoLB.fog[31].server[0] droppedJobsSLA 0
scalar FogNoLB.fog[31].server[0] droppedJobsTotal 680
scalar FogNoLB.fog[32].dispatcher localJobs 322683
scalar FogNoLB.fog[32].dispatcher remoteJobs 0
scalar FogNoLB.fog[32].dispatcher probeQueries 0
scalar FogNoLB.fog[32].dispatcher probeAnswers 0
scalar FogNoLB.fog[32].dispatcher droppedJobsSLA 0
scalar FogNoLB.fog[32].dispatcher jobs_class_1 322683
scalar FogNoLB.fog[32].dispatcher localJobs_class_1 322683
scalar FogNoLB.fog[32].server[0] rho 0.49788337945938
scalar FogNoLB.fog[32].server[0] congestionRatio 0
scalar FogNoLB.fog[32].server[0] totalJobs 322683
scalar FogNoLB.fog[32].server[0] droppedJobsQueue 705
scalar FogNoLB.fog[32].server[0] droppedJobsTimout 0
scalar FogNoLB.fog[32].server[0] droppedJobsSLA 0
scalar FogNoLB.fog[32].server[0] droppedJobsTotal 705
scalar FogNoLB.fog[33].dispatcher localJobs 323466
scalar FogNoLB.fog[33].dispatcher remoteJobs 0
scalar FogNoLB.fog[33].dispatcher probeQueries 0
scalar FogNoLB.fog[33].dispatcher probeAnswers 0
scalar FogNoLB.fog[33].dispatcher droppedJobsSLA 0
scalar FogNoLB.fog[33].dispatcher jobs_class_1 323466
scalar FogNoLB.fog[33].dispatcher localJobs_class_1 323466
scalar FogNoLB.fog[33].server[0] rho 0.49918782711029
scalar FogNoLB.fog[33].server[0] congestionRatio 0
scalar FogNoLB.fog[33].server[0] totalJobs 323466
scalar FogNoLB.fog[33].server[0] droppedJobsQueue 643
scalar FogNoLB.fog[33].server[0] droppedJobsTimout 0
scalar FogNoLB.fog[33].server[0] droppedJobsSLA 0
scalar FogNoLB.fog[33].server[0] droppedJobsTotal 643
scalar FogNoLB.fog[34].dispatcher localJobs 323013
scalar FogNoLB.fog[34].dispatcher remoteJobs 0
scalar FogNoLB.fog[34].dispatcher probeQueries 0
scalar FogNoLB.fog[34].dispatcher probeAnswers 0
scalar FogNoLB.fog[34].dispatcher droppedJobsSLA 0
scalar FogNoLB.fog[34].dispatcher jobs_class_1 323013
scalar FogNoLB.fog[34].dispatcher localJobs_class_1 323013
scalar FogNoLB.fog[34].server[0] rho 0.49839577078819
scalar FogNoLB.fog[34].server[0] congestionRatio 0
scalar FogNoLB.fog[34].server[0] totalJobs 323013
scalar FogNoLB.fog[34].server[0] droppedJobsQueue 708
scalar FogNoLB.fog[34].server[0] droppedJobsTimout 0
scalar FogNoLB.fog[34].server[0] droppedJobsSLA 0
scalar FogNoLB.fog[34].server[0] droppedJobsTotal 708
scalar FogNoLB.fog[35].dispatcher localJobs 323412
scalar FogNoLB.fog[35].dispatcher remoteJobs 0
scalar FogNoLB.fog[35].dispatcher probeQueries 0
scalar FogNoLB.fog[35].dispatcher probeAnswers 0
scalar FogNoLB.fog[35].dispatcher droppedJobsSLA 0
scalar FogNoLB.fog[35].dispatcher jobs_class_1 323412
scalar FogNoLB.fog[35].dispatcher localJobs_class_1 323412
scalar FogNoLB.fog[35].server[0] rho 0.49890688061714
scalar FogNoLB.fog[35].server[0] congestionRatio 0
scalar FogNoLB.fog[35].server[0] totalJobs 323412
scalar FogNoLB.fog[35].server[0] droppedJobsQueue 753
scalar FogNoLB.fog[35].server[0] droppedJobsTimout 0
scalar FogNoLB.fog[35].server[0] droppedJobsSLA 0
scalar FogNoLB.fog[35].server[0] droppedJobsTotal 753
scalar FogNoLB.fog[36].dispatcher localJobs 323232
scalar FogNoLB.fog[36].dispatcher remoteJobs 0
scalar FogNoLB.fog[36].dispatcher probeQueries 0
scalar FogNoLB.fog[36].dispatcher probeAnswers 0
scalar FogNoLB.fog[36].dispatcher droppedJobsSLA 0
scalar FogNoLB.fog[36].dispatcher jobs_class_1 323232
scalar FogNoLB.fog[36].dispatcher localJobs_class_1 323232
scalar FogNoLB.fog[36].server[0] rho 0.49867317080498
scalar FogNoLB.fog[36].server[0] congestionRatio 0
scalar FogNoLB.fog[36].server[0] totalJobs 323232
scalar FogNoLB.fog[36].server[0] droppedJobsQueue 727
scalar FogNoLB.fog[36].server[0] droppedJobsTimout 0
scalar FogNoLB.fog[36].server[0] droppedJobsSLA 0
scalar FogNoLB.fog[36].server[0] droppedJobsTotal 727
scalar FogNoLB.fog[37].dispatcher localJobs 323893
scalar FogNoLB.fog[37].dispatcher remoteJobs 0
scalar FogNoLB.fog[37].dispatcher probeQueries 0
scalar FogNoLB.fog[37].dispatcher probeAnswers 0
scalar FogNoLB.fog[37].dispatcher droppedJobsSLA 0
scalar FogNoLB.fog[37].dispatcher jobs_class_1 323893
scalar FogNoLB.fog[37].dispatcher localJobs_class_1 323893
scalar FogNoLB.fog[37].server[0] rho 0.49973213672638
scalar FogNoLB.fog[37].server[0] congestionRatio 0
scalar FogNoLB.fog[37].server[0] totalJobs 323893
scalar FogNoLB.fog[37].server[0] droppedJobsQueue 714
scalar FogNoLB.fog[37].server[0] droppedJobsTimout 0
scalar FogNoLB.fog[37].server[0] droppedJobsSLA 0
scalar FogNoLB.fog[37].server[0] droppedJobsTotal 714
scalar FogNoLB.fog[38].dispatcher localJobs 322416
scalar FogNoLB.fog[38].dispatcher remoteJobs 0
scalar FogNoLB.fog[38].dispatcher probeQueries 0
scalar FogNoLB.fog[38].dispatcher probeAnswers 0
scalar FogNoLB.fog[38].dispatcher droppedJobsSLA 0
scalar FogNoLB.fog[38].dispatcher jobs_class_1 322416
scalar FogNoLB.fog[38].dispatcher localJobs_class_1 322416
scalar FogNoLB.fog[38].server[0] rho 0.49757158756256
scalar FogNoLB.fog[38].server[0] congestionRatio 0
scalar FogNoLB.fog[38].server[0] totalJobs 322416
scalar FogNoLB.fog[38].server[0] droppedJobsQueue 643
scalar FogNoLB.fog[38].server[0] droppedJobsTimout 0
scalar FogNoLB.fog[38].server[0] droppedJobsSLA 0
scalar FogNoLB.fog[38].server[0] droppedJobsTotal 643
scalar FogNoLB.fog[39].dispatcher localJobs 322712
scalar FogNoLB.fog[39].dispatcher remoteJobs 0
scalar FogNoLB.fog[39].dispatcher probeQueries 0
scalar FogNoLB.fog[39].dispatcher probeAnswers 0
scalar FogNoLB.fog[39].dispatcher droppedJobsSLA 0
scalar FogNoLB.fog[39].dispatcher jobs_class_1 322712
scalar FogNoLB.fog[39].dispatcher localJobs_class_1 322712
scalar FogNoLB.fog[39].server[0] rho 0.49781611561775
scalar FogNoLB.fog[39].server[0] congestionRatio 0
scalar FogNoLB.fog[39].server[0] totalJobs 322712
scalar FogNoLB.fog[39].server[0] droppedJobsQueue 769
scalar FogNoLB.fog[39].server[0] droppedJobsTimout 0
scalar FogNoLB.fog[39].server[0] droppedJobsSLA 0
scalar FogNoLB.fog[39].server[0] droppedJobsTotal 769
scalar FogNoLB.fog[40].dispatcher localJobs 324144
scalar FogNoLB.fog[40].dispatcher remoteJobs 0
scalar FogNoLB.fog[40].dispatcher probeQueries 0
scalar FogNoLB.fog[40].dispatcher probeAnswers 0
scalar FogNoLB.fog[40].dispatcher droppedJobsSLA 0
scalar FogNoLB.fog[40].dispatcher jobs_class_1 324144
scalar FogNoLB.fog[40].dispatcher localJobs_class_1 324144
scalar FogNoLB.fog[40].server[0] rho 0.50014269351959
scalar FogNoLB.fog[40].server[0] congestionRatio 0
scalar FogNoLB.fog[40].server[0] totalJobs 324144
scalar FogNoLB.fog[40].server[0] droppedJobsQueue 709
scalar FogNoLB.fog[40].server[0] droppedJobsTimout 0
scalar FogNoLB.fog[40].server[0] droppedJobsSLA 0
scalar FogNoLB.fog[40].server[0] droppedJobsTotal 709
scalar FogNoLB.fog[41].dispatcher localJobs 322178
scalar FogNoLB.fog[41].dispatcher remoteJobs 0
scalar FogNoLB.fog[41].dispatcher probeQueries 0
scalar FogNoLB.fog[41].dispatcher probeAnswers 0
scalar FogNoLB.fog[41].dispatcher droppedJobsSLA 0
scalar FogNoLB.fog[41].dispatcher jobs_class_1 322178
scalar FogNoLB.fog[41].dispatcher localJobs_class_1 322178
scalar FogNoLB.fog[41].server[0] rho 0.49720203876495
scalar FogNoLB.fog[41].server[0] congestionRatio 0
scalar FogNoLB.fog[41].server[0] totalJobs 322178
scalar FogNoLB.fog[41].server[0] droppedJobsQueue 634
scalar FogNoLB.fog[41].server[0] droppedJobsTimout 0
scalar FogNoLB.fog[41].server[0] droppedJobsSLA 0
scalar FogNoLB.fog[41].server[0] droppedJobsTotal 634
scalar FogNoLB.fog[42].dispatcher localJobs 322732
scalar FogNoLB.fog[42].dispatcher remoteJobs 0
scalar FogNoLB.fog[42].dispatcher probeQueries 0
scalar FogNoLB.fog[42].dispatcher probeAnswers 0
scalar FogNoLB.fog[42].dispatcher droppedJobsSLA 0
scalar FogNoLB.fog[42].dispatcher jobs_class_1 322732
scalar FogNoLB.fog[42].dispatcher localJobs_class_1 322732
scalar FogNoLB.fog[42].server[0] rho 0.49787923693657
scalar FogNoLB.fog[42].server[0] congestionRatio 0
scalar FogNoLB.fog[42].server[0] totalJobs 322732
scalar FogNoLB.fog[42].server[0] droppedJobsQueue 773
scalar FogNoLB.fog[42].server[0] droppedJobsTimout 0
scalar FogNoLB.fog[42].server[0] droppedJobsSLA 0
scalar FogNoLB.fog[42].server[0] droppedJobsTotal 773
scalar FogNoLB.fog[43].dispatcher localJobs 321787
scalar FogNoLB.fog[43].dispatcher remoteJobs 0
scalar FogNoLB.fog[43].dispatcher probeQueries 0
scalar FogNoLB.fog[43].dispatcher probeAnswers 0
scalar FogNoLB.fog[43].dispatcher droppedJobsSLA 0
scalar FogNoLB.fog[43].dispatcher jobs_class_1 321787
scalar FogNoLB.fog[43].dispatcher localJobs_class_1 321787
scalar FogNoLB.fog[43].server[0] rho 0.4964357316494
scalar FogNoLB.fog[43].server[0] congestionRatio 0
scalar FogNoLB.fog[43].server[0] totalJobs 321787
scalar FogNoLB.fog[43].server[0] droppedJobsQueue 726
scalar FogNoLB.fog[43].server[0] droppedJobsTimout 0
scalar FogNoLB.fog[43].server[0] droppedJobsSLA 0
scalar FogNoLB.fog[43].server[0] droppedJobsTotal 726
scalar FogNoLB.fog[44].dispatcher localJobs 323893
scalar FogNoLB.fog[44].dispatcher remoteJobs 0
scalar FogNoLB.fog[44].dispatcher probeQueries 0
scalar FogNoLB.fog[44].dispatcher probeAnswers 0
scalar FogNoLB.fog[44].dispatcher droppedJobsSLA 0
scalar FogNoLB.fog[44].dispatcher jobs_class_1 323893
scalar FogNoLB.fog[44].dispatcher localJobs_class_1 323893
scalar FogNoLB.fog[44].server[0] rho 0.49975898861885
scalar FogNoLB.fog[44].server[0] congestionRatio 0
scalar FogNoLB.fog[44].server[0] totalJobs 323893
scalar FogNoLB.fog[44].server[0] droppedJobsQueue 698
scalar FogNoLB.fog[44].server[0] droppedJobsTimout 0
scalar FogNoLB.fog[44].server[0] droppedJobsSLA 0
scalar FogNoLB.fog[44].server[0] droppedJobsTotal 698
scalar FogNoLB.fog[45].dispatcher localJobs 322291
scalar FogNoLB.fog[45].dispatcher remoteJobs 0
scalar FogNoLB.fog[45].dispatcher probeQueries 0
scalar FogNoLB.fog[45].dispatcher probeAnswers 0
scalar FogNoLB.fog[45].dispatcher droppedJobsSLA 0
scalar FogNoLB.fog[45].dispatcher jobs_class_1 322291
scalar FogNoLB.fog[45].dispatcher localJobs_class_1 322291
scalar FogNoLB.fog[45].server[0] rho 0.49742034077644
scalar FogNoLB.fog[45].server[0] congestionRatio 0
scalar FogNoLB.fog[45].server[0] totalJobs 322291
scalar FogNoLB.fog[45].server[0] droppedJobsQueue 626
scalar FogNoLB.fog[45].server[0] droppedJobsTimout 0
scalar FogNoLB.fog[45].server[0] droppedJobsSLA 0
scalar FogNoLB.fog[45].server[0] droppedJobsTotal 626
scalar FogNoLB.fog[46].dispatcher localJobs 322872
scalar FogNoLB.fog[46].dispatcher remoteJobs 0
scalar FogNoLB.fog[46].dispatcher probeQueries 0
scalar FogNoLB.fog[46].dispatcher probeAnswers 0
scalar FogNoLB.fog[46].dispatcher droppedJobsSLA 0
scalar FogNoLB.fog[46].dispatcher jobs_class_1 322872
scalar FogNoLB.fog[46].dispatcher localJobs_class_1 322872
scalar FogNoLB.fog[46].server[0] rho 0.49815773963928
scalar FogNoLB.fog[46].server[0] congestionRatio 0
scalar FogNoLB.fog[46].server[0] totalJobs 322872
scalar FogNoLB.fog[46].server[0] droppedJobsQueue 697
scalar FogNoLB.fog[46].server[0] droppedJobsTimout 0
scalar FogNoLB.fog[46].server[0] droppedJobsSLA 0
scalar FogNoLB.fog[46].server[0] droppedJobsTotal 697
scalar FogNoLB.fog[47].dispatcher localJobs 323853
scalar FogNoLB.fog[47].dispatcher remoteJobs 0
scalar FogNoLB.fog[47].dispatcher probeQueries 0
scalar FogNoLB.fog[47].dispatcher probeAnswers 0
scalar FogNoLB.fog[47].dispatcher droppedJobsSLA 0
scalar FogNoLB.fog[47].dispatcher jobs_class_1 323853
scalar FogNoLB.fog[47].dispatcher localJobs_class_1 323853
scalar FogNoLB.fog[47].server[0] rho 0.49964013695717
scalar FogNoLB.fog[47].server[0] congestionRatio 0
scalar FogNoLB.fog[47].server[0] totalJobs 323853
scalar FogNoLB.fog[47].server[0] droppedJobsQueue 730
scalar FogNoLB.fog[47].server[0] droppedJobsTimout 0
scalar FogNoLB.fog[47].server[0] droppedJobsSLA 0
scalar FogNoLB.fog[47].server[0] droppedJobsTotal 730
scalar FogNoLB.fog[48].dispatcher localJobs 322362
scalar FogNoLB.fog[48].dispatcher remoteJobs 0
scalar FogNoLB.fog[48].dispatcher probeQueries 0
scalar FogNoLB.fog[48].dispatcher probeAnswers 0
scalar FogNoLB.fog[48].dispatcher droppedJobsSLA 0
scalar FogNoLB.fog[48].dispatcher jobs_class_1 322362
scalar FogNoLB.fog[48].dispatcher localJobs_class_1 322362
scalar FogNoLB.fog[48].server[0] rho 0.49750119447708
scalar FogNoLB.fog[48].server[0] congestionRatio 0
scalar FogNoLB.fog[48].server[0] totalJobs 322362
scalar FogNoLB.fog[48].server[0] droppedJobsQueue 612
scalar FogNoLB.fog[48].server[0] droppedJobsTimout 0
scalar FogNoLB.fog[48].server[0] droppedJobsSLA 0
scalar FogNoLB.fog[48].server[0] droppedJobsTotal 612
scalar FogNoLB.fog[49].dispatcher localJobs 323016
scalar FogNoLB.fog[49].dispatcher remoteJobs 0
scalar FogNoLB.fog[49].dispatcher probeQueries 0
scalar FogNoLB.fog[49].dispatcher probeAnswers 0
scalar FogNoLB.fog[49].dispatcher droppedJobsSLA 0
scalar FogNoLB.fog[49].dispatcher jobs_class_1 323016
scalar FogNoLB.fog[49].dispatcher localJobs_class_1 323016
scalar FogNoLB.fog[49].server[0] rho 0.49834930896759
scalar FogNoLB.fog[49].server[0] congestionRatio 0
scalar FogNoLB.fog[49].server[0] totalJobs 323016
scalar FogNoLB.fog[49].server[0] droppedJobsQueue 720
scalar FogNoLB.fog[49].server[0] droppedJobsTimout 0
scalar FogNoLB.fog[49].server[0] droppedJobsSLA 0
scalar FogNoLB.fog[49].server[0] droppedJobsTotal 720
scalar FogNoLB.fog[50].dispatcher localJobs 323162
scalar FogNoLB.fog[50].dispatcher remoteJobs 0
scalar FogNoLB.fog[50].dispatcher probeQueries 0
scalar FogNoLB.fog[50].dispatcher probeAnswers 0
scalar FogNoLB.fog[50].dispatcher droppedJobsSLA 0
scalar FogNoLB.fog[50].dispatcher jobs_class_1 323162
scalar FogNoLB.fog[50].dispatcher localJobs_class_1 323162
scalar FogNoLB.fog[50].server[0] rho 0.4986084997654
scalar FogNoLB.fog[50].server[0] congestionRatio 0
scalar FogNoLB.fog[50].server[0] totalJobs 323162
scalar FogNoLB.fog[50].server[0] droppedJobsQueue 716
scalar FogNoLB.fog[50].server[0] droppedJobsTimout 0
scalar FogNoLB.fog[50].server[0] droppedJobsSLA 0
scalar FogNoLB.fog[50].server[0] droppedJobsTotal 716
scalar FogNoLB.fog[51].dispatcher localJobs 323070
scalar FogNoLB.fog[51].dispatcher remoteJobs 0
scalar FogNoLB.fog[51].dispatcher probeQueries 0
scalar FogNoLB.fog[51].dispatcher probeAnswers 0
scalar FogNoLB.fog[51].dispatcher droppedJobsSLA 0
scalar FogNoLB.fog[51].dispatcher jobs_class_1 323070
scalar FogNoLB.fog[51].dispatcher localJobs_class_1 323070
scalar FogNoLB.fog[51].server[0] rho 0.49859976768494
scalar FogNoLB.fog[51].server[0] congestionRatio 0
scalar FogNoLB.fog[51].server[0] totalJobs 323070
scalar FogNoLB.fog[51].server[0] droppedJobsQueue 624
scalar FogNoLB.fog[51].server[0] droppedJobsTimout 0
scalar FogNoLB.fog[51].server[0] droppedJobsSLA 0
scalar FogNoLB.fog[51].server[0] droppedJobsTotal 624
scalar FogNoLB.fog[52].dispatcher localJobs 324255
scalar FogNoLB.fog[52].dispatcher remoteJobs 0
scalar FogNoLB.fog[52].dispatcher probeQueries 0
scalar FogNoLB.fog[52].dispatcher probeAnswers 0
scalar FogNoLB.fog[52].dispatcher droppedJobsSLA 0
scalar FogNoLB.fog[52].dispatcher jobs_class_1 324255
scalar FogNoLB.fog[52].dispatcher localJobs_class_1 324255
scalar FogNoLB.fog[52].server[0] rho 0.50040739774704
scalar FogNoLB.fog[52].server[0] congestionRatio 0
scalar FogNoLB.fog[52].server[0] totalJobs 324255
scalar FogNoLB.fog[52].server[0] droppedJobsQueue 649
scalar FogNoLB.fog[52].server[0] droppedJobsTimout 0
scalar FogNoLB.fog[52].server[0] droppedJobsSLA 0
scalar FogNoLB.fog[52].server[0] droppedJobsTotal 649
scalar FogNoLB.fog[53].dispatcher localJobs 322908
scalar FogNoLB.fog[53].dispatcher remoteJobs 0
scalar FogNoLB.fog[53].dispatcher probeQueries 0
scalar FogNoLB.fog[53].dispatcher probeAnswers 0
scalar FogNoLB.fog[53].dispatcher droppedJobsSLA 0
scalar FogNoLB.fog[53].dispatcher jobs_class_1 322908
scalar FogNoLB.fog[53].dispatcher localJobs_class_1 322908
scalar FogNoLB.fog[53].server[0] rho 0.49831068515778
scalar FogNoLB.fog[53].server[0] congestionRatio 0
scalar FogNoLB.fog[53].server[0] totalJobs 322908
scalar FogNoLB.fog[53].server[0] droppedJobsQueue 650
scalar FogNoLB.fog[53].server[0] droppedJobsTimout 0
scalar FogNoLB.fog[53].server[0] droppedJobsSLA 0
scalar FogNoLB.fog[53].server[0] droppedJobsTotal 650
scalar FogNoLB.fog[54].dispatcher localJobs 323505
scalar FogNoLB.fog[54].dispatcher remoteJobs 0
scalar FogNoLB.fog[54].dispatcher probeQueries 0
scalar FogNoLB.fog[54].dispatcher probeAnswers 0
scalar FogNoLB.fog[54].dispatcher droppedJobsSLA 0
scalar FogNoLB.fog[54].dispatcher jobs_class_1 323505
scalar FogNoLB.fog[54].dispatcher localJobs_class_1 323505
scalar FogNoLB.fog[54].server[0] rho 0.49908322095871
scalar FogNoLB.fog[54].server[0] congestionRatio 0
scalar FogNoLB.fog[54].server[0] totalJobs 323505
scalar FogNoLB.fog[54].server[0] droppedJobsQueue 736
scalar FogNoLB.fog[54].server[0] droppedJobsTimout 0
scalar FogNoLB.fog[54].server[0] droppedJobsSLA 0
scalar FogNoLB.fog[54].server[0] droppedJobsTotal 736
scalar FogNoLB.fog[55].dispatcher localJobs 323947
scalar FogNoLB.fog[55].dispatcher remoteJobs 0
scalar FogNoLB.fog[55].dispatcher probeQueries 0
scalar FogNoLB.fog[55].dispatcher probeAnswers 0
scalar FogNoLB.fog[55].dispatcher droppedJobsSLA 0
scalar FogNoLB.fog[55].dispatcher jobs_class_1 323947
scalar FogNoLB.fog[55].dispatcher localJobs_class_1 323947
scalar FogNoLB.fog[55].server[0] rho 0.49985238909721
scalar FogNoLB.fog[55].server[0] congestionRatio 0
scalar FogNoLB.fog[55].server[0] totalJobs 323947
scalar FogNoLB.fog[55].server[0] droppedJobsQueue 677
scalar FogNoLB.fog[55].server[0] droppedJobsTimout 0
scalar FogNoLB.fog[55].server[0] droppedJobsSLA 0
scalar FogNoLB.fog[55].server[0] droppedJobsTotal 677
scalar FogNoLB.fog[56].dispatcher localJobs 323752
scalar FogNoLB.fog[56].dispatcher remoteJobs 0
scalar FogNoLB.fog[56].dispatcher probeQueries 0
scalar FogNoLB.fog[56].dispatcher probeAnswers 0
scalar FogNoLB.fog[56].dispatcher droppedJobsSLA 0
scalar FogNoLB.fog[56].dispatcher jobs_class_1 323752
scalar FogNoLB.fog[56].dispatcher localJobs_class_1 323752
scalar FogNoLB.fog[56].server[0] rho 0.49947452545166
scalar FogNoLB.fog[56].server[0] congestionRatio 0
scalar FogNoLB.fog[56].server[0] totalJobs 323752
scalar FogNoLB.fog[56].server[0] droppedJobsQueue 731
scalar FogNoLB.fog[56].server[0] droppedJobsTimout 0
scalar FogNoLB.fog[56].server[0] droppedJobsSLA 0
scalar FogNoLB.fog[56].server[0] droppedJobsTotal 731
scalar FogNoLB.fog[57].dispatcher localJobs 324021
scalar FogNoLB.fog[57].dispatcher remoteJobs 0
scalar FogNoLB.fog[57].dispatcher probeQueries 0
scalar FogNoLB.fog[57].dispatcher probeAnswers 0
scalar FogNoLB.fog[57].dispatcher droppedJobsSLA 0
scalar FogNoLB.fog[57].dispatcher jobs_class_1 324021
scalar FogNoLB.fog[57].dispatcher localJobs_class_1 324021
scalar FogNoLB.fog[57].server[0] rho 0.49996221065521
scalar FogNoLB.fog[57].server[0] congestionRatio 0
scalar FogNoLB.fog[57].server[0] totalJobs 324021
scalar FogNoLB.fog[57].server[0] droppedJobsQueue 704
scalar FogNoLB.fog[57].server[0] droppedJobsTimout 0
scalar FogNoLB.fog[57].server[0] droppedJobsSLA 0
scalar FogNoLB.fog[57].server[0] droppedJobsTotal 704
scalar FogNoLB.fog[58].dispatcher localJobs 323809
scalar FogNoLB.fog[58].dispatcher remoteJobs 0
scalar FogNoLB.fog[58].dispatcher probeQueries 0
scalar FogNoLB.fog[58].dispatcher probeAnswers 0
scalar FogNoLB.fog[58].dispatcher droppedJobsSLA 0
scalar FogNoLB.fog[58].dispatcher jobs_class_1 323809
scalar FogNoLB.fog[58].dispatcher localJobs_class_1 323809
scalar FogNoLB.fog[58].server[0] rho 0.49955675005913
scalar FogNoLB.fog[58].server[0] congestionRatio 0
scalar FogNoLB.fog[58].server[0] totalJobs 323809
scalar FogNoLB.fog[58].server[0] droppedJobsQueue 735
scalar FogNoLB.fog[58].server[0] droppedJobsTimout 0
scalar FogNoLB.fog[58].server[0] droppedJobsSLA 0
scalar FogNoLB.fog[58].server[0] droppedJobsTotal 735
scalar FogNoLB.fog[59].dispatcher localJobs 322078
scalar FogNoLB.fog[59].dispatcher remoteJobs 0
scalar FogNoLB.fog[59].dispatcher probeQueries 0
scalar FogNoLB.fog[59].dispatcher probeAnswers 0
scalar FogNoLB.fog[59].dispatcher droppedJobsSLA 0
scalar FogNoLB.fog[59].dispatcher jobs_class_1 322078
scalar FogNoLB.fog[59].dispatcher localJobs_class_1 322078
scalar FogNoLB.fog[59].server[0] rho 0.49696862697601
scalar FogNoLB.fog[59].server[0] congestionRatio 0
scalar FogNoLB.fog[59].server[0] totalJobs 322078
scalar FogNoLB.fog[59].server[0] droppedJobsQueue 691
scalar FogNoLB.fog[59].server[0] droppedJobsTimout 0
scalar FogNoLB.fog[59].server[0] droppedJobsSLA 0
scalar FogNoLB.fog[59].server[0] droppedJobsTotal 691
scalar FogNoLB.fog[60].dispatcher localJobs 324369
scalar FogNoLB.fog[60].dispatcher remoteJobs 0
scalar FogNoLB.fog[60].dispatcher probeQueries 0
scalar FogNoLB.fog[60].dispatcher probeAnswers 0
scalar FogNoLB.fog[60].dispatcher droppedJobsSLA 0
scalar FogNoLB.fog[60].dispatcher jobs_class_1 324369
scalar FogNoLB.fog[60].dispatcher localJobs_class_1 324369
scalar FogNoLB.fog[60].server[0] rho 0.50050008296967
scalar FogNoLB.fog[60].server[0] congestionRatio 0
scalar FogNoLB.fog[60].server[0] totalJobs 324369
scalar FogNoLB.fog[60].server[0] droppedJobsQueue 698
scalar FogNoLB.fog[60].server[0] droppedJobsTimout 0
scalar FogNoLB.fog[60].server[0] droppedJobsSLA 0
scalar FogNoLB.fog[60].server[0] droppedJobsTotal 698
scalar FogNoLB.fog[61].dispatcher localJobs 324155
scalar FogNoLB.fog[61].dispatcher remoteJobs 0
scalar FogNoLB.fog[61].dispatcher probeQueries 0
scalar FogNoLB.fog[61].dispatcher probeAnswers 0
scalar FogNoLB.fog[61].dispatcher droppedJobsSLA 0
scalar FogNoLB.fog[61].dispatcher jobs_class_1 324155
scalar FogNoLB.fog[61].dispatcher localJobs_class_1 324155
scalar FogNoLB.fog[61].server[0] rho 0.50016361474991
scalar FogNoLB.fog[61].server[0] congestionRatio 0
scalar FogNoLB.fog[61].server[0] totalJobs 324155
scalar FogNoLB.fog[61].server[0] droppedJobsQueue 691
scalar FogNoLB.fog[61].server[0] droppedJobsTimout 0
scalar FogNoLB.fog[61].server[0] droppedJobsSLA 0
scalar FogNoLB.fog[61].server[0] droppedJobsTotal 691
scalar FogNoLB.fog[62].dispatcher localJobs 323441
scalar FogNoLB.fog[62].dispatcher remoteJobs 0
scalar FogNoLB.fog[62].dispatcher probeQueries 0
scalar FogNoLB.fog[62].dispatcher probeAnswers 0
scalar FogNoLB.fog[62].dispatcher droppedJobsSLA 0
scalar FogNoLB.fog[62].dispatcher jobs_class_1 323441
scalar FogNoLB.fog[62].dispatcher localJobs_class_1 323441
scalar FogNoLB.fog[62].server[0] rho 0.49909666180611
scalar FogNoLB.fog[62].server[0] congestionRatio 0
scalar FogNoLB.fog[62].server[0] totalJobs 323441
scalar FogNoLB.fog[62].server[0] droppedJobsQueue 673
scalar FogNoLB.fog[62].server[0] droppedJobsTimout 0
scalar FogNoLB.fog[62].server[0] droppedJobsSLA 0
scalar FogNoLB.fog[62].server[0] droppedJobsTotal 673
scalar FogNoLB.fog[63].dispatcher localJobs 323108
scalar FogNoLB.fog[63].dispatcher remoteJobs 0
scalar FogNoLB.fog[63].dispatcher probeQueries 0
scalar FogNoLB.fog[63].dispatcher probeAnswers 0
scalar FogNoLB.fog[63].dispatcher droppedJobsSLA 0
scalar FogNoLB.fog[63].dispatcher jobs_class_1 323108
scalar FogNoLB.fog[63].dispatcher localJobs_class_1 323108
scalar FogNoLB.fog[63].server[0] rho 0.49855914711952
scalar FogNoLB.fog[63].server[0] congestionRatio 0
scalar FogNoLB.fog[63].server[0] totalJobs 323108
scalar FogNoLB.fog[63].server[0] droppedJobsQueue 686
scalar FogNoLB.fog[63].server[0] droppedJobsTimout 0
scalar FogNoLB.fog[63].server[0] droppedJobsSLA 0
scalar FogNoLB.fog[63].server[0] droppedJobsTotal 686
scalar FogNoLB.fog[64].dispatcher localJobs 322701
scalar FogNoLB.fog[64].dispatcher remoteJobs 0
scalar FogNoLB.fog[64].dispatcher probeQueries 0
scalar FogNoLB.fog[64].dispatcher probeAnswers 0
scalar FogNoLB.fog[64].dispatcher droppedJobsSLA 0
scalar FogNoLB.fog[64].dispatcher jobs_class_1 322701
scalar FogNoLB.fog[64].dispatcher localJobs_class_1 322701
scalar FogNoLB.fog[64].server[0] rho 0.49789422750473
scalar FogNoLB.fog[64].server[0] congestionRatio 0
scalar FogNoLB.fog[64].server[0] totalJobs 322701
scalar FogNoLB.fog[64].server[0] droppedJobsQueue 703
scalar FogNoLB.fog[64].server[0] droppedJobsTimout 0
scalar FogNoLB.fog[64].server[0] droppedJobsSLA 0
scalar FogNoLB.fog[64].server[0] droppedJobsTotal 703
scalar FogNoLB.fog[65].dispatcher localJobs 322413
scalar FogNoLB.fog[65].dispatcher remoteJobs 0
scalar FogNoLB.fog[65].dispatcher probeQueries 0
scalar FogNoLB.fog[65].dispatcher probeAnswers 0
scalar FogNoLB.fog[65].dispatcher droppedJobsSLA 0
scalar FogNoLB.fog[65].dispatcher jobs_class_1 322413
scalar FogNoLB.fog[65].dispatcher localJobs_class_1 322413
scalar FogNoLB.fog[65].server[0] rho 0.49755573272705
scalar FogNoLB.fog[65].server[0] congestionRatio 0
scalar FogNoLB.fog[65].server[0] totalJobs 322413
scalar FogNoLB.fog[65].server[0] droppedJobsQueue 642
scalar FogNoLB.fog[65].server[0] droppedJobsTimout 0
scalar FogNoLB.fog[65].server[0] droppedJobsSLA 0
scalar FogNoLB.fog[65].server[0] droppedJobsTotal 642
scalar FogNoLB.fog[66].dispatcher localJobs 323948
scalar FogNoLB.fog[66].dispatcher remoteJobs 0
scalar FogNoLB.fog[66].dispatcher probeQueries 0
scalar FogNoLB.fog[66].dispatcher probeAnswers 0
scalar FogNoLB.fog[66].dispatcher droppedJobsSLA 0
scalar FogNoLB.fog[66].dispatcher jobs_class_1 323948
scalar FogNoLB.fog[66].dispatcher localJobs_class_1 323948
scalar FogNoLB.fog[66].server[0] rho 0.49971368908882
scalar FogNoLB.fog[66].server[0] congestionRatio 0
scalar FogNoLB.fog[66].server[0] totalJobs 323948
scalar FogNoLB.fog[66].server[0] droppedJobsQueue 772
scalar FogNoLB.fog[66].server[0] droppedJobsTimout 0
scalar FogNoLB.fog[66].server[0] droppedJobsSLA 0
scalar FogNoLB.fog[66].server[0] droppedJobsTotal 772
scalar FogNoLB.fog[67].dispatcher localJobs 323444
scalar FogNoLB.fog[67].dispatcher remoteJobs 0
scalar FogNoLB.fog[67].dispatcher probeQueries 0
scalar FogNoLB.fog[67].dispatcher probeAnswers 0
scalar FogNoLB.fog[67].dispatcher droppedJobsSLA 0
scalar FogNoLB.fog[67].dispatcher jobs_class_1 323444
scalar FogNoLB.fog[67].dispatcher localJobs_class_1 323444
scalar FogNoLB.fog[67].server[0] rho 0.49907991290092
scalar FogNoLB.fog[67].server[0] congestionRatio 0
scalar FogNoLB.fog[67].server[0] totalJobs 323444
scalar FogNoLB.fog[67].server[0] droppedJobsQueue 660
scalar FogNoLB.fog[67].server[0] droppedJobsTimout 0
scalar FogNoLB.fog[67].server[0] droppedJobsSLA 0
scalar FogNoLB.fog[67].server[0] droppedJobsTotal 660
scalar FogNoLB.fog[68].dispatcher localJobs 324657
scalar FogNoLB.fog[68].dispatcher remoteJobs 0
scalar FogNoLB.fog[68].dispatcher probeQueries 0
scalar FogNoLB.fog[68].dispatcher probeAnswers 0
scalar FogNoLB.fog[68].dispatcher droppedJobsSLA 0
scalar FogNoLB.fog[68].dispatcher jobs_class_1 324657
scalar FogNoLB.fog[68].dispatcher localJobs_class_1 324657
scalar FogNoLB.fog[68].server[0] rho 0.50083595514297
scalar FogNoLB.fog[68].server[0] congestionRatio 0
scalar FogNoLB.fog[68].server[0] totalJobs 324657
scalar FogNoLB.fog[68].server[0] droppedJobsQueue 762
scalar FogNoLB.fog[68].server[0] droppedJobsTimout 0
scalar FogNoLB.fog[68].server[0] droppedJobsSLA 0
scalar FogNoLB.fog[68].server[0] droppedJobsTotal 762
scalar FogNoLB.fog[69].dispatcher localJobs 323195
scalar FogNoLB.fog[69].dispatcher remoteJobs 0
scalar FogNoLB.fog[69].dispatcher probeQueries 0
scalar FogNoLB.fog[69].dispatcher probeAnswers 0
scalar FogNoLB.fog[69].dispatcher droppedJobsSLA 0
scalar FogNoLB.fog[69].dispatcher jobs_class_1 323195
scalar FogNoLB.fog[69].dispatcher localJobs_class_1 323195
scalar FogNoLB.fog[69].server[0] rho 0.49866986274719
scalar FogNoLB.fog[69].server[0] congestionRatio 0
scalar FogNoLB.fog[69].server[0] totalJobs 323195
scalar FogNoLB.fog[69].server[0] droppedJobsQueue 715
scalar FogNoLB.fog[69].server[0] droppedJobsTimout 0
scalar FogNoLB.fog[69].server[0] droppedJobsSLA 0
scalar FogNoLB.fog[69].server[0] droppedJobsTotal 715
scalar FogNoLB.fog[70].dispatcher localJobs 322902
scalar FogNoLB.fog[70].dispatcher remoteJobs 0
scalar FogNoLB.fog[70].dispatcher probeQueries 0
scalar FogNoLB.fog[70].dispatcher probeAnswers 0
scalar FogNoLB.fog[70].dispatcher droppedJobsSLA 0
scalar FogNoLB.fog[70].dispatcher jobs_class_1 322902
scalar FogNoLB.fog[70].dispatcher localJobs_class_1 322902
scalar FogNoLB.fog[70].server[0] rho 0.49809634685516
scalar FogNoLB.fog[70].server[0] congestionRatio 0
scalar FogNoLB.fog[70].server[0] totalJobs 322902
scalar FogNoLB.fog[70].server[0] droppedJobsQueue 778
scalar FogNoLB.fog[70].server[0] droppedJobsTimout 0
scalar FogNoLB.fog[70].server[0] droppedJobsSLA 0
scalar FogNoLB.fog[70].server[0] droppedJobsTotal 778
scalar FogNoLB.fog[71].dispatcher localJobs 323466
scalar FogNoLB.fog[71].dispatcher remoteJobs 0
scalar FogNoLB.fog[71].dispatcher probeQueries 0
scalar FogNoLB.fog[71].dispatcher probeAnswers 0
scalar FogNoLB.fog[71].dispatcher droppedJobsSLA 0
scalar FogNoLB.fog[71].dispatcher jobs_class_1 323466
scalar FogNoLB.fog[71].dispatcher localJobs_class_1 323466
scalar FogNoLB.fog[71].server[0] rho 0.49910196661949
scalar FogNoLB.fog[71].server[0] congestionRatio 0
scalar FogNoLB.fog[71].server[0] totalJobs 323466
scalar FogNoLB.fog[71].server[0] droppedJobsQueue 686
scalar FogNoLB.fog[71].server[0] droppedJobsTimout 0
scalar FogNoLB.fog[71].server[0] droppedJobsSLA 0
scalar FogNoLB.fog[71].server[0] droppedJobsTotal 686
scalar FogNoLB.fog[72].dispatcher localJobs 322225
scalar FogNoLB.fog[72].dispatcher remoteJobs 0
scalar FogNoLB.fog[72].dispatcher probeQueries 0
scalar FogNoLB.fog[72].dispatcher probeAnswers 0
scalar FogNoLB.fog[72].dispatcher droppedJobsSLA 0
scalar FogNoLB.fog[72].dispatcher jobs_class_1 322225
scalar FogNoLB.fog[72].dispatcher localJobs_class_1 322225
scalar FogNoLB.fog[72].server[0] rho 0.49717751145363
scalar FogNoLB.fog[72].server[0] congestionRatio 0
scalar FogNoLB.fog[72].server[0] totalJobs 322225
scalar FogNoLB.fog[72].server[0] droppedJobsQueue 697
scalar FogNoLB.fog[72].server[0] droppedJobsTimout 0
scalar FogNoLB.fog[72].server[0] droppedJobsSLA 0
scalar FogNoLB.fog[72].server[0] droppedJobsTotal 697
scalar FogNoLB.fog[73].dispatcher localJobs 323281
scalar FogNoLB.fog[73].dispatcher remoteJobs 0
scalar FogNoLB.fog[73].dispatcher probeQueries 0
scalar FogNoLB.fog[73].dispatcher probeAnswers 0
scalar FogNoLB.fog[73].dispatcher droppedJobsSLA 0
scalar FogNoLB.fog[73].dispatcher jobs_class_1 323281
scalar FogNoLB.fog[73].dispatcher localJobs_class_1 323281
scalar FogNoLB.fog[73].server[0] rho 0.49885627627373
scalar FogNoLB.fog[73].server[0] congestionRatio 0
scalar FogNoLB.fog[73].server[0] totalJobs 323281
scalar FogNoLB.fog[73].server[0] droppedJobsQueue 666
scalar FogNoLB.fog[73].server[0] droppedJobsTimout 0
scalar FogNoLB.fog[73].server[0] droppedJobsSLA 0
scalar FogNoLB.fog[73].server[0] droppedJobsTotal 666
scalar FogNoLB.fog[74].dispatcher localJobs 322083
scalar FogNoLB.fog[74].dispatcher remoteJobs 0
scalar FogNoLB.fog[74].dispatcher probeQueries 0
scalar FogNoLB.fog[74].dispatcher probeAnswers 0
scalar FogNoLB.fog[74].dispatcher droppedJobsSLA 0
scalar FogNoLB.fog[74].dispatcher jobs_class_1 322083
scalar FogNoLB.fog[74].dispatcher localJobs_class_1 322083
scalar FogNoLB.fog[74].server[0] rho 0.4969248175621
scalar FogNoLB.fog[74].server[0] congestionRatio 0
scalar FogNoLB.fog[74].server[0] totalJobs 322083
scalar FogNoLB.fog[74].server[0] droppedJobsQueue 726
scalar FogNoLB.fog[74].server[0] droppedJobsTimout 0
scalar FogNoLB.fog[74].server[0] droppedJobsSLA 0
scalar FogNoLB.fog[74].server[0] droppedJobsTotal 726
scalar FogNoLB.fog[75].dispatcher localJobs 322970
scalar FogNoLB.fog[75].dispatcher remoteJobs 0
scalar FogNoLB.fog[75].dispatcher probeQueries 0
scalar FogNoLB.fog[75].dispatcher probeAnswers 0
scalar FogNoLB.fog[75].dispatcher droppedJobsSLA 0
scalar FogNoLB.fog[75].dispatcher jobs_class_1 322970
scalar FogNoLB.fog[75].dispatcher localJobs_class_1 322970
scalar FogNoLB.fog[75].server[0] rho 0.49828776717186
scalar FogNoLB.fog[75].server[0] congestionRatio 0
scalar FogNoLB.fog[75].server[0] totalJobs 322970
scalar FogNoLB.fog[75].server[0] droppedJobsQueue 720
scalar FogNoLB.fog[75].server[0] droppedJobsTimout 0
scalar FogNoLB.fog[75].server[0] droppedJobsSLA 0
scalar FogNoLB.fog[75].server[0] droppedJobsTotal 720
scalar FogNoLB.fog[76].dispatcher localJobs 323590
scalar FogNoLB.fog[76].dispatcher remoteJobs 0
scalar FogNoLB.fog[76].dispatcher probeQueries 0
scalar FogNoLB.fog[76].dispatcher probeAnswers 0
scalar FogNoLB.fog[76].dispatcher droppedJobsSLA 0
scalar FogNoLB.fog[76].dispatcher jobs_class_1 323590
scalar FogNoLB.fog[76].dispatcher localJobs_class_1 323590
scalar FogNoLB.fog[76].server[0] rho 0.4993097782135
scalar FogNoLB.fog[76].server[0] congestionRatio 0
scalar FogNoLB.fog[76].server[0] totalJobs 323590
scalar FogNoLB.fog[76].server[0] droppedJobsQueue 683
scalar FogNoLB.fog[76].server[0] droppedJobsTimout 0
scalar FogNoLB.fog[76].server[0] droppedJobsSLA 0
scalar FogNoLB.fog[76].server[0] droppedJobsTotal 683
scalar FogNoLB.fog[77].dispatcher localJobs 323776
scalar FogNoLB.fog[77].dispatcher remoteJobs 0
scalar FogNoLB.fog[77].dispatcher probeQueries 0
scalar FogNoLB.fog[77].dispatcher probeAnswers 0
scalar FogNoLB.fog[77].dispatcher droppedJobsSLA 0
scalar FogNoLB.fog[77].dispatcher jobs_class_1 323776
scalar FogNoLB.fog[77].dispatcher localJobs_class_1 323776
scalar FogNoLB.fog[77].server[0] rho 0.4996118247509
scalar FogNoLB.fog[77].server[0] congestionRatio 0
scalar FogNoLB.fog[77].server[0] totalJobs 323776
scalar FogNoLB.fog[77].server[0] droppedJobsQueue 698
scalar FogNoLB.fog[77].server[0] droppedJobsTimout 0
scalar FogNoLB.fog[77].server[0] droppedJobsSLA 0
scalar FogNoLB.fog[77].server[0] droppedJobsTotal 698
scalar FogNoLB.fog[78].dispatcher localJobs 323093
scalar FogNoLB.fog[78].dispatcher remoteJobs 0
scalar FogNoLB.fog[78].dispatcher probeQueries 0
scalar FogNoLB.fog[78].dispatcher probeAnswers 0
scalar FogNoLB.fog[78].dispatcher droppedJobsSLA 0
scalar FogNoLB.fog[78].dispatcher jobs_class_1 323093
scalar FogNoLB.fog[78].dispatcher localJobs_class_1 323093
scalar FogNoLB.fog[78].server[0] rho 0.49851381778717
scalar FogNoLB.fog[78].server[0] congestionRatio 0
scalar FogNoLB.fog[78].server[0] totalJobs 323093
scalar FogNoLB.fog[78].server[0] droppedJobsQueue 700
scalar FogNoLB.fog[78].server[0] droppedJobsTimout 0
scalar FogNoLB.fog[78].server[0] droppedJobsSLA 0
scalar FogNoLB.fog[78].server[0] droppedJobsTotal 700
scalar FogNoLB.fog[79].dispatcher localJobs 324175
scalar FogNoLB.fog[79].dispatcher remoteJobs 0
scalar FogNoLB.fog[79].dispatcher probeQueries 0
scalar FogNoLB.fog[79].dispatcher probeAnswers 0
scalar FogNoLB.fog[79].dispatcher droppedJobsSLA 0
scalar FogNoLB.fog[79].dispatcher jobs_class_1 324175
scalar FogNoLB.fog[79].dispatcher localJobs_class_1 324175
scalar FogNoLB.fog[79].server[0] rho 0.50011795759201
scalar FogNoLB.fog[79].server[0] congestionRatio 0
scalar FogNoLB.fog[79].server[0] totalJobs 324175
scalar FogNoLB.fog[79].server[0] droppedJobsQueue 740
scalar FogNoLB.fog[79].server[0] droppedJobsTimout 0
scalar FogNoLB.fog[79].server[0] droppedJobsSLA 0
scalar FogNoLB.fog[79].server[0] droppedJobsTotal 740
scalar FogNoLB.fog[80].dispatcher localJobs 323194
scalar FogNoLB.fog[80].dispatcher remoteJobs 0
scalar FogNoLB.fog[80].dispatcher probeQueries 0
scalar FogNoLB.fog[80].dispatcher probeAnswers 0
scalar FogNoLB.fog[80].dispatcher droppedJobsSLA 0
scalar FogNoLB.fog[80].dispatcher jobs_class_1 323194
scalar FogNoLB.fog[80].dispatcher localJobs_class_1 323194
scalar FogNoLB.fog[80].server[0] rho 0.49867209792137
scalar FogNoLB.fog[80].server[0] congestionRatio 0
scalar FogNoLB.fog[80].server[0] totalJobs 323194
scalar FogNoLB.fog[80].server[0] droppedJobsQueue 723
scalar FogNoLB.fog[80].server[0] droppedJobsTimout 0
scalar FogNoLB.fog[80].server[0] droppedJobsSLA 0
scalar FogNoLB.fog[80].server[0] droppedJobsTotal 723
scalar FogNoLB.fog[81].dispatcher localJobs 322621
scalar FogNoLB.fog[81].dispatcher remoteJobs 0
scalar FogNoLB.fog[81].dispatcher probeQueries 0
scalar FogNoLB.fog[81].dispatcher probeAnswers 0
scalar FogNoLB.fog[81].dispatcher droppedJobsSLA 0
scalar FogNoLB.fog[81].dispatcher jobs_class_1 322621
scalar FogNoLB.fog[81].dispatcher localJobs_class_1 322621
scalar FogNoLB.fog[81].server[0] rho 0.49773451685905
scalar FogNoLB.fog[81].server[0] congestionRatio 0
scalar FogNoLB.fog[81].server[0] totalJobs 322621
scalar FogNoLB.fog[81].server[0] droppedJobsQueue 708
scalar FogNoLB.fog[81].server[0] droppedJobsTimout 0
scalar FogNoLB.fog[81].server[0] droppedJobsSLA 0
scalar FogNoLB.fog[81].server[0] droppedJobsTotal 708
scalar FogNoLB.fog[82].dispatcher localJobs 324209
scalar FogNoLB.fog[82].dispatcher remoteJobs 0
scalar FogNoLB.fog[82].dispatcher probeQueries 0
scalar FogNoLB.fog[82].dispatcher probeAnswers 0
scalar FogNoLB.fog[82].dispatcher droppedJobsSLA 0
scalar FogNoLB.fog[82].dispatcher jobs_class_1 324209
scalar FogNoLB.fog[82].dispatcher localJobs_class_1 324209
scalar FogNoLB.fog[82].server[0] rho 0.50026750564575
scalar FogNoLB.fog[82].server[0] congestionRatio 0
scalar FogNoLB.fog[82].server[0] totalJobs 324209
scalar FogNoLB.fog[82].server[0] droppedJobsQueue 675
scalar FogNoLB.fog[82].server[0] droppedJobsTimout 0
scalar FogNoLB.fog[82].server[0] droppedJobsSLA 0
scalar FogNoLB.fog[82].server[0] droppedJobsTotal 675
scalar FogNoLB.fog[83].dispatcher localJobs 324170
scalar FogNoLB.fog[83].dispatcher remoteJobs 0
scalar FogNoLB.fog[83].dispatcher probeQueries 0
scalar FogNoLB.fog[83].dispatcher probeAnswers 0
scalar FogNoLB.fog[83].dispatcher droppedJobsSLA 0
scalar FogNoLB.fog[83].dispatcher jobs_class_1 324170
scalar FogNoLB.fog[83].dispatcher localJobs_class_1 324170
scalar FogNoLB.fog[83].server[0] rho 0.50016069412231
scalar FogNoLB.fog[83].server[0] congestionRatio 0
scalar FogNoLB.fog[83].server[0] totalJobs 324170
scalar FogNoLB.fog[83].server[0] droppedJobsQueue 707
scalar FogNoLB.fog[83].server[0] droppedJobsTimout 0
scalar FogNoLB.fog[83].server[0] droppedJobsSLA 0
scalar FogNoLB.fog[83].server[0] droppedJobsTotal 707
scalar FogNoLB.fog[84].dispatcher localJobs 323319
scalar FogNoLB.fog[84].dispatcher remoteJobs 0
scalar FogNoLB.fog[84].dispatcher probeQueries 0
scalar FogNoLB.fog[84].dispatcher probeAnswers 0
scalar FogNoLB.fog[84].dispatcher droppedJobsSLA 0
scalar FogNoLB.fog[84].dispatcher jobs_class_1 323319
scalar FogNoLB.fog[84].dispatcher localJobs_class_1 323319
scalar FogNoLB.fog[84].server[0] rho 0.49890047311783
scalar FogNoLB.fog[84].server[0] congestionRatio 0
scalar FogNoLB.fog[84].server[0] totalJobs 323319
scalar FogNoLB.fog[84].server[0] droppedJobsQueue 666
scalar FogNoLB.fog[84].server[0] droppedJobsTimout 0
scalar FogNoLB.fog[84].server[0] droppedJobsSLA 0
scalar FogNoLB.fog[84].server[0] droppedJobsTotal 666
scalar FogNoLB.fog[85].dispatcher localJobs 322201
scalar FogNoLB.fog[85].dispatcher remoteJobs 0
scalar FogNoLB.fog[85].dispatcher probeQueries 0
scalar FogNoLB.fog[85].dispatcher probeAnswers 0
scalar FogNoLB.fog[85].dispatcher droppedJobsSLA 0
scalar FogNoLB.fog[85].dispatcher jobs_class_1 322201
scalar FogNoLB.fog[85].dispatcher localJobs_class_1 322201
scalar FogNoLB.fog[85].server[0] rho 0.49714961647987
scalar FogNoLB.fog[85].server[0] congestionRatio 0
scalar FogNoLB.fog[85].server[0] totalJobs 322201
scalar FogNoLB.fog[85].server[0] droppedJobsQueue 697
scalar FogNoLB.fog[85].server[0] droppedJobsTimout 0
scalar FogNoLB.fog[85].server[0] droppedJobsSLA 0
scalar FogNoLB.fog[85].server[0] droppedJobsTotal 697
scalar FogNoLB.fog[86].dispatcher localJobs 322541
scalar FogNoLB.fog[86].dispatcher remoteJobs 0
scalar FogNoLB.fog[86].dispatcher probeQueries 0
scalar FogNoLB.fog[86].dispatcher probeAnswers 0
scalar FogNoLB.fog[86].dispatcher droppedJobsSLA 0
scalar FogNoLB.fog[86].dispatcher jobs_class_1 322541
scalar FogNoLB.fog[86].dispatcher localJobs_class_1 322541
scalar FogNoLB.fog[86].server[0] rho 0.4976409971714
scalar FogNoLB.fog[86].server[0] congestionRatio 0
scalar FogNoLB.fog[86].server[0] totalJobs 322541
scalar FogNoLB.fog[86].server[0] droppedJobsQueue 717
scalar FogNoLB.fog[86].server[0] droppedJobsTimout 0
scalar FogNoLB.fog[86].server[0] droppedJobsSLA 0
scalar FogNoLB.fog[86].server[0] droppedJobsTotal 717
scalar FogNoLB.fog[87].dispatcher localJobs 323380
scalar FogNoLB.fog[87].dispatcher remoteJobs 0
scalar FogNoLB.fog[87].dispatcher probeQueries 0
scalar FogNoLB.fog[87].dispatcher probeAnswers 0
scalar FogNoLB.fog[87].dispatcher droppedJobsSLA 0
scalar FogNoLB.fog[87].dispatcher jobs_class_1 323380
scalar FogNoLB.fog[87].dispatcher localJobs_class_1 323380
scalar FogNoLB.fog[87].server[0] rho 0.49905362725258
scalar FogNoLB.fog[87].server[0] congestionRatio 0
scalar FogNoLB.fog[87].server[0] totalJobs 323380
scalar FogNoLB.fog[87].server[0] droppedJobsQueue 649
scalar FogNoLB.fog[87].server[0] droppedJobsTimout 0
scalar FogNoLB.fog[87].server[0] droppedJobsSLA 0
scalar FogNoLB.fog[87].server[0] droppedJobsTotal 649
scalar FogNoLB.fog[88].dispatcher localJobs 323628
scalar FogNoLB.fog[88].dispatcher remoteJobs 0
scalar FogNoLB.fog[88].dispatcher probeQueries 0
scalar FogNoLB.fog[88].dispatcher probeAnswers 0
scalar FogNoLB.fog[88].dispatcher droppedJobsSLA 0
scalar FogNoLB.fog[88].dispatcher jobs_class_1 323628
scalar FogNoLB.fog[88].dispatcher localJobs_class_1 323628
scalar FogNoLB.fog[88].server[0] rho 0.49928218126297
scalar FogNoLB.fog[88].server[0] congestionRatio 0
scalar FogNoLB.fog[88].server[0] totalJobs 323628
scalar FogNoLB.fog[88].server[0] droppedJobsQueue 730
scalar FogNoLB.fog[88].server[0] droppedJobsTimout 0
scalar FogNoLB.fog[88].server[0] droppedJobsSLA 0
scalar FogNoLB.fog[88].server[0] droppedJobsTotal 730
scalar FogNoLB.fog[89].dispatcher localJobs 322958
scalar FogNoLB.fog[89].dispatcher remoteJobs 0
scalar FogNoLB.fog[89].dispatcher probeQueries 0
scalar FogNoLB.fog[89].dispatcher probeAnswers 0
scalar FogNoLB.fog[89].dispatcher droppedJobsSLA 0
scalar FogNoLB.fog[89].dispatcher jobs_class_1 322958
scalar FogNoLB.fog[89].dispatcher localJobs_class_1 322958
scalar FogNoLB.fog[89].server[0] rho 0.49832439422607
scalar FogNoLB.fog[89].server[0] congestionRatio 0
scalar FogNoLB.fog[89].server[0] totalJobs 322958
scalar FogNoLB.fog[89].server[0] droppedJobsQueue 688
scalar FogNoLB.fog[89].server[0] droppedJobsTimout 0
scalar FogNoLB.fog[89].server[0] droppedJobsSLA 0
scalar FogNoLB.fog[89].server[0] droppedJobsTotal 688
scalar FogNoLB.fog[90].dispatcher localJobs 322149
scalar FogNoLB.fog[90].dispatcher remoteJobs 0
scalar FogNoLB.fog[90].dispatcher probeQueries 0
scalar FogNoLB.fog[90].dispatcher probeAnswers 0
scalar FogNoLB.fog[90].dispatcher droppedJobsSLA 0
scalar FogNoLB.fog[90].dispatcher jobs_class_1 322149
scalar FogNoLB.fog[90].dispatcher localJobs_class_1 322149
scalar FogNoLB.fog[90].server[0] rho 0.49715802073479
scalar FogNoLB.fog[90].server[0] congestionRatio 0
scalar FogNoLB.fog[90].server[0] totalJobs 322149
scalar FogNoLB.fog[90].server[0] droppedJobsQueue 652
scalar FogNoLB.fog[90].server[0] droppedJobsTimout 0
scalar FogNoLB.fog[90].server[0] droppedJobsSLA 0
scalar FogNoLB.fog[90].server[0] droppedJobsTotal 652
scalar FogNoLB.fog[91].dispatcher localJobs 322935
scalar FogNoLB.fog[91].dispatcher remoteJobs 0
scalar FogNoLB.fog[91].dispatcher probeQueries 0
scalar FogNoLB.fog[91].dispatcher probeAnswers 0
scalar FogNoLB.fog[91].dispatcher droppedJobsSLA 0
scalar FogNoLB.fog[91].dispatcher jobs_class_1 322935
scalar FogNoLB.fog[91].dispatcher localJobs_class_1 322935
scalar FogNoLB.fog[91].server[0] rho 0.49828645586967
scalar FogNoLB.fog[91].server[0] congestionRatio 0
scalar FogNoLB.fog[91].server[0] totalJobs 322935
scalar FogNoLB.fog[91].server[0] droppedJobsQueue 678
scalar FogNoLB.fog[91].server[0] droppedJobsTimout 0
scalar FogNoLB.fog[91].server[0] droppedJobsSLA 0
scalar FogNoLB.fog[91].server[0] droppedJobsTotal 678
scalar FogNoLB.fog[92].dispatcher localJobs 321722
scalar FogNoLB.fog[92].dispatcher remoteJobs 0
scalar FogNoLB.fog[92].dispatcher probeQueries 0
scalar FogNoLB.fog[92].dispatcher probeAnswers 0
scalar FogNoLB.fog[92].dispatcher droppedJobsSLA 0
scalar FogNoLB.fog[92].dispatcher jobs_class_1 321722
scalar FogNoLB.fog[92].dispatcher localJobs_class_1 321722
scalar FogNoLB.fog[92].server[0] rho 0.49638968706131
scalar FogNoLB.fog[92].server[0] congestionRatio 0
scalar FogNoLB.fog[92].server[0] totalJobs 321722
scalar FogNoLB.fog[92].server[0] droppedJobsQueue 706
scalar FogNoLB.fog[92].server[0] droppedJobsTimout 0
scalar FogNoLB.fog[92].server[0] droppedJobsSLA 0
scalar FogNoLB.fog[92].server[0] droppedJobsTotal 706
scalar FogNoLB.fog[93].dispatcher localJobs 323151
scalar FogNoLB.fog[93].dispatcher remoteJobs 0
scalar FogNoLB.fog[93].dispatcher probeQueries 0
scalar FogNoLB.fog[93].dispatcher probeAnswers 0
scalar FogNoLB.fog[93].dispatcher droppedJobsSLA 0
scalar FogNoLB.fog[93].dispatcher jobs_class_1 323151
scalar FogNoLB.fog[93].dispatcher localJobs_class_1 323151
scalar FogNoLB.fog[93].server[0] rho 0.49856725335121
scalar FogNoLB.fog[93].server[0] congestionRatio 0
scalar FogNoLB.fog[93].server[0] totalJobs 323151
scalar FogNoLB.fog[93].server[0] droppedJobsQueue 714
scalar FogNoLB.fog[93].server[0] droppedJobsTimout 0
scalar FogNoLB.fog[93].server[0] droppedJobsSLA 0
scalar FogNoLB.fog[93].server[0] droppedJobsTotal 714
scalar FogNoLB.fog[94].dispatcher localJobs 323441
scalar FogNoLB.fog[94].dispatcher remoteJobs 0
scalar FogNoLB.fog[94].dispatcher probeQueries 0
scalar FogNoLB.fog[94].dispatcher probeAnswers 0
scalar FogNoLB.fog[94].dispatcher droppedJobsSLA 0
scalar FogNoLB.fog[94].dispatcher jobs_class_1 323441
scalar FogNoLB.fog[94].dispatcher localJobs_class_1 323441
scalar FogNoLB.fog[94].server[0] rho 0.49905768036842
scalar FogNoLB.fog[94].server[0] congestionRatio 0
scalar FogNoLB.fog[94].server[0] totalJobs 323441
scalar FogNoLB.fog[94].server[0] droppedJobsQueue 702
scalar FogNoLB.fog[94].server[0] droppedJobsTimout 0
scalar FogNoLB.fog[94].server[0] droppedJobsSLA 0
scalar FogNoLB.fog[94].server[0] droppedJobsTotal 702
scalar FogNoLB.fog[95].dispatcher localJobs 324197
scalar FogNoLB.fog[95].dispatcher remoteJobs 0
scalar FogNoLB.fog[95].dispatcher probeQueries 0
scalar FogNoLB.fog[95].dispatcher probeAnswers 0
scalar FogNoLB.fog[95].dispatcher droppedJobsSLA 0
scalar FogNoLB.fog[95].dispatcher jobs_class_1 324197
scalar FogNoLB.fog[95].dispatcher localJobs_class_1 324197
scalar FogNoLB.fog[95].server[0] rho 0.50015830993652
scalar FogNoLB.fog[95].server[0] congestionRatio 0
scalar FogNoLB.fog[95].server[0] totalJobs 324197
scalar FogNoLB.fog[95].server[0] droppedJobsQueue 747
scalar FogNoLB.fog[95].server[0] droppedJobsTimout 0
scalar FogNoLB.fog[95].server[0] droppedJobsSLA 0
scalar FogNoLB.fog[95].server[0] droppedJobsTotal 747
scalar FogNoLB.fog[96].dispatcher localJobs 322815
scalar FogNoLB.fog[96].dispatcher remoteJobs 0
scalar FogNoLB.fog[96].dispatcher probeQueries 0
scalar FogNoLB.fog[96].dispatcher probeAnswers 0
scalar FogNoLB.fog[96].dispatcher droppedJobsSLA 0
scalar FogNoLB.fog[96].dispatcher jobs_class_1 322815
scalar FogNoLB.fog[96].dispatcher localJobs_class_1 322815
scalar FogNoLB.fog[96].server[0] rho 0.49813595414162
scalar FogNoLB.fog[96].server[0] congestionRatio 0
scalar FogNoLB.fog[96].server[0] totalJobs 322815
scalar FogNoLB.fog[96].server[0] droppedJobsQueue 676
scalar FogNoLB.fog[96].server[0] droppedJobsTimout 0
scalar FogNoLB.fog[96].server[0] droppedJobsSLA 0
scalar FogNoLB.fog[96].server[0] droppedJobsTotal 676
scalar FogNoLB.fog[97].dispatcher localJobs 324499
scalar FogNoLB.fog[97].dispatcher remoteJobs 0
scalar FogNoLB.fog[97].dispatcher probeQueries 0
scalar FogNoLB.fog[97].dispatcher probeAnswers 0
scalar FogNoLB.fog[97].dispatcher droppedJobsSLA 0
scalar FogNoLB.fog[97].dispatcher jobs_class_1 324499
scalar FogNoLB.fog[97].dispatcher localJobs_class_1 324499
scalar FogNoLB.fog[97].server[0] rho 0.50064623355865
scalar FogNoLB.fog[97].server[0] congestionRatio 0
scalar FogNoLB.fog[97].server[0] totalJobs 324499
scalar FogNoLB.fog[97].server[0] droppedJobsQueue 736
scalar FogNoLB.fog[97].server[0] droppedJobsTimout 0
scalar FogNoLB.fog[97].server[0] droppedJobsSLA 0
scalar FogNoLB.fog[97].server[0] droppedJobsTotal 736
scalar FogNoLB.fog[98].dispatcher localJobs 323363
scalar FogNoLB.fog[98].dispatcher remoteJobs 0
scalar FogNoLB.fog[98].dispatcher probeQueries 0
scalar FogNoLB.fog[98].dispatcher probeAnswers 0
scalar FogNoLB.fog[98].dispatcher droppedJobsSLA 0
scalar FogNoLB.fog[98].dispatcher jobs_class_1 323363
scalar FogNoLB.fog[98].dispatcher localJobs_class_1 323363
scalar FogNoLB.fog[98].server[0] rho 0.49893864989281
scalar FogNoLB.fog[98].server[0] congestionRatio 0
scalar FogNoLB.fog[98].server[0] totalJobs 323363
scalar FogNoLB.fog[98].server[0] droppedJobsQueue 713
scalar FogNoLB.fog[98].server[0] droppedJobsTimout 0
scalar FogNoLB.fog[98].server[0] droppedJobsSLA 0
scalar FogNoLB.fog[98].server[0] droppedJobsTotal 713
scalar FogNoLB.fog[99].dispatcher localJobs 322878
scalar FogNoLB.fog[99].dispatcher remoteJobs 0
scalar FogNoLB.fog[99].dispatcher probeQueries 0
scalar FogNoLB.fog[99].dispatcher probeAnswers 0
scalar FogNoLB.fog[99].dispatcher droppedJobsSLA 0
scalar FogNoLB.fog[99].dispatcher jobs_class_1 322878
scalar FogNoLB.fog[99].dispatcher localJobs_class_1 322878
scalar FogNoLB.fog[99].server[0] rho 0.49817496538162
scalar FogNoLB.fog[99].server[0] congestionRatio 0
scalar FogNoLB.fog[99].server[0] totalJobs 322878
scalar FogNoLB.fog[99].server[0] droppedJobsQueue 695
scalar FogNoLB.fog[99].server[0] droppedJobsTimout 0
scalar FogNoLB.fog[99].server[0] droppedJobsSLA 0
scalar FogNoLB.fog[99].server[0] droppedJobsTotal 695
scalar FogNoLB.sink avg_responseTime_1 0.024738471153045
scalar FogNoLB.sink p90_responseTime_1 0.01474163093
scalar FogNoLB.sink med_responseTime_1 0.01474163093
scalar FogNoLB.sink avg_delayTime_1 0
scalar FogNoLB.sink p90_delayTime_1 0
scalar FogNoLB.sink med_delayTime_1 0
scalar FogNoLB.sink avg_queuingTime_1 0.0080384340310842
scalar FogNoLB.sink p90_queuingTime_1 0
scalar FogNoLB.sink med_queuingTime_1 0
scalar FogNoLB.sink avg_serviceTime_1 0.016700037121961
scalar FogNoLB.sink p90_serviceTime_1 0.01474163093
scalar FogNoLB.sink med_serviceTime_1 0.01474163093
scalar FogNoLB.sink avg_balancerTime_1 0
scalar FogNoLB.sink p90_balancerTime_1 0
scalar FogNoLB.sink med_balancerTime_1 0
scalar FogNoLB.sink avg_balancerCount_1 1
scalar FogNoLB.sink p90_balancerCount_1 1
scalar FogNoLB.sink med_balancerCount_1 1

