version 2
run Fog-mul_001-rho_05-thr_6-1-20190711-17:35:53-47862
attr configname Fog-mul_001-rho_05-thr_6
attr datetime 20190711-17:35:53
attr experiment Fog-mul_001-rho_05-thr_6
attr inifile FogQueueLen.ini
attr iterationvars ""
attr iterationvarsf ""
attr measurement ""
attr network FogNoLB
attr processid 47862
attr repetition 1
attr replication #1
attr resultdir results
attr runnumber 1
attr seedset 1
param FogNoLB.proctimeMul 0.01
param FogNoLB.rho 0.5
param FogNoLB.fog[*].server[*].capacity 6
param FogNoLB.nSources 100
param FogNoLB.rho 0.9
param FogNoLB.proctimeMul 1.0
param FogNoLB.source[*].appId 1
param FogNoLB.fog[*].nServers 1
param FogNoLB.fog[*].dispatcher.fanOut 1
param FogNoLB.fog[*].server[*].timeSlice -1s
param FogNoLB.fog[*].server[*].capacity 5
param FogNoLB.fog[*].server[*].fifo true
param FogNoLB.fog[*].server[*].maxServiceTime -1s

scalar FogNoLB.fog[0].dispatcher localJobs 323052
scalar FogNoLB.fog[0].dispatcher remoteJobs 0
scalar FogNoLB.fog[0].dispatcher probeQueries 0
scalar FogNoLB.fog[0].dispatcher probeAnswers 0
scalar FogNoLB.fog[0].dispatcher droppedJobsSLA 0
scalar FogNoLB.fog[0].dispatcher jobs_class_1 323052
scalar FogNoLB.fog[0].dispatcher localJobs_class_1 323052
scalar FogNoLB.fog[0].server[0] rho 0.4994498193264
scalar FogNoLB.fog[0].server[0] congestionRatio 0
scalar FogNoLB.fog[0].server[0] totalJobs 323052
scalar FogNoLB.fog[0].server[0] droppedJobsQueue 41
scalar FogNoLB.fog[0].server[0] droppedJobsTimout 0
scalar FogNoLB.fog[0].server[0] droppedJobsSLA 0
scalar FogNoLB.fog[0].server[0] droppedJobsTotal 41
scalar FogNoLB.fog[1].dispatcher localJobs 322652
scalar FogNoLB.fog[1].dispatcher remoteJobs 0
scalar FogNoLB.fog[1].dispatcher probeQueries 0
scalar FogNoLB.fog[1].dispatcher probeAnswers 0
scalar FogNoLB.fog[1].dispatcher droppedJobsSLA 0
scalar FogNoLB.fog[1].dispatcher jobs_class_1 322652
scalar FogNoLB.fog[1].dispatcher localJobs_class_1 322652
scalar FogNoLB.fog[1].server[0] rho 0.49882391095161
scalar FogNoLB.fog[1].server[0] congestionRatio 0
scalar FogNoLB.fog[1].server[0] totalJobs 322652
scalar FogNoLB.fog[1].server[0] droppedJobsQueue 57
scalar FogNoLB.fog[1].server[0] droppedJobsTimout 0
scalar FogNoLB.fog[1].server[0] droppedJobsSLA 0
scalar FogNoLB.fog[1].server[0] droppedJobsTotal 57
scalar FogNoLB.fog[2].dispatcher localJobs 325693
scalar FogNoLB.fog[2].dispatcher remoteJobs 0
scalar FogNoLB.fog[2].dispatcher probeQueries 0
scalar FogNoLB.fog[2].dispatcher probeAnswers 0
scalar FogNoLB.fog[2].dispatcher droppedJobsSLA 0
scalar FogNoLB.fog[2].dispatcher jobs_class_1 325693
scalar FogNoLB.fog[2].dispatcher localJobs_class_1 325693
scalar FogNoLB.fog[2].server[0] rho 0.50351840257645
scalar FogNoLB.fog[2].server[0] congestionRatio 0
scalar FogNoLB.fog[2].server[0] totalJobs 325693
scalar FogNoLB.fog[2].server[0] droppedJobsQueue 59
scalar FogNoLB.fog[2].server[0] droppedJobsTimout 0
scalar FogNoLB.fog[2].server[0] droppedJobsSLA 0
scalar FogNoLB.fog[2].server[0] droppedJobsTotal 59
scalar FogNoLB.fog[3].dispatcher localJobs 323660
scalar FogNoLB.fog[3].dispatcher remoteJobs 0
scalar FogNoLB.fog[3].dispatcher probeQueries 0
scalar FogNoLB.fog[3].dispatcher probeAnswers 0
scalar FogNoLB.fog[3].dispatcher droppedJobsSLA 0
scalar FogNoLB.fog[3].dispatcher jobs_class_1 323660
scalar FogNoLB.fog[3].dispatcher localJobs_class_1 323660
scalar FogNoLB.fog[3].server[0] rho 0.50040650367737
scalar FogNoLB.fog[3].server[0] congestionRatio 0
scalar FogNoLB.fog[3].server[0] totalJobs 323660
scalar FogNoLB.fog[3].server[0] droppedJobsQueue 47
scalar FogNoLB.fog[3].server[0] droppedJobsTimout 0
scalar FogNoLB.fog[3].server[0] droppedJobsSLA 0
scalar FogNoLB.fog[3].server[0] droppedJobsTotal 47
scalar FogNoLB.fog[4].dispatcher localJobs 322924
scalar FogNoLB.fog[4].dispatcher remoteJobs 0
scalar FogNoLB.fog[4].dispatcher probeQueries 0
scalar FogNoLB.fog[4].dispatcher probeAnswers 0
scalar FogNoLB.fog[4].dispatcher droppedJobsSLA 0
scalar FogNoLB.fog[4].dispatcher jobs_class_1 322924
scalar FogNoLB.fog[4].dispatcher localJobs_class_1 322924
scalar FogNoLB.fog[4].server[0] rho 0.49923494458199
scalar FogNoLB.fog[4].server[0] congestionRatio 0
scalar FogNoLB.fog[4].server[0] totalJobs 322924
scalar FogNoLB.fog[4].server[0] droppedJobsQueue 57
scalar FogNoLB.fog[4].server[0] droppedJobsTimout 0
scalar FogNoLB.fog[4].server[0] droppedJobsSLA 0
scalar FogNoLB.fog[4].server[0] droppedJobsTotal 57
scalar FogNoLB.fog[5].dispatcher localJobs 323050
scalar FogNoLB.fog[5].dispatcher remoteJobs 0
scalar FogNoLB.fog[5].dispatcher probeQueries 0
scalar FogNoLB.fog[5].dispatcher probeAnswers 0
scalar FogNoLB.fog[5].dispatcher droppedJobsSLA 0
scalar FogNoLB.fog[5].dispatcher jobs_class_1 323050
scalar FogNoLB.fog[5].dispatcher localJobs_class_1 323050
scalar FogNoLB.fog[5].server[0] rho 0.49949541687965
scalar FogNoLB.fog[5].server[0] congestionRatio 0
scalar FogNoLB.fog[5].server[0] totalJobs 323050
scalar FogNoLB.fog[5].server[0] droppedJobsQueue 48
scalar FogNoLB.fog[5].server[0] droppedJobsTimout 0
scalar FogNoLB.fog[5].server[0] droppedJobsSLA 0
scalar FogNoLB.fog[5].server[0] droppedJobsTotal 48
scalar FogNoLB.fog[6].dispatcher localJobs 324403
scalar FogNoLB.fog[6].dispatcher remoteJobs 0
scalar FogNoLB.fog[6].dispatcher probeQueries 0
scalar FogNoLB.fog[6].dispatcher probeAnswers 0
scalar FogNoLB.fog[6].dispatcher droppedJobsSLA 0
scalar FogNoLB.fog[6].dispatcher jobs_class_1 324403
scalar FogNoLB.fog[6].dispatcher localJobs_class_1 324403
scalar FogNoLB.fog[6].server[0] rho 0.50151813030243
scalar FogNoLB.fog[6].server[0] congestionRatio 0
scalar FogNoLB.fog[6].server[0] totalJobs 324403
scalar FogNoLB.fog[6].server[0] droppedJobsQueue 54
scalar FogNoLB.fog[6].server[0] droppedJobsTimout 0
scalar FogNoLB.fog[6].server[0] droppedJobsSLA 0
scalar FogNoLB.fog[6].server[0] droppedJobsTotal 54
scalar FogNoLB.fog[7].dispatcher localJobs 323386
scalar FogNoLB.fog[7].dispatcher remoteJobs 0
scalar FogNoLB.fog[7].dispatcher probeQueries 0
scalar FogNoLB.fog[7].dispatcher probeAnswers 0
scalar FogNoLB.fog[7].dispatcher droppedJobsSLA 0
scalar FogNoLB.fog[7].dispatcher jobs_class_1 323386
scalar FogNoLB.fog[7].dispatcher localJobs_class_1 323386
scalar FogNoLB.fog[7].server[0] rho 0.49999475479126
scalar FogNoLB.fog[7].server[0] congestionRatio 0
scalar FogNoLB.fog[7].server[0] totalJobs 323386
scalar FogNoLB.fog[7].server[0] droppedJobsQueue 50
scalar FogNoLB.fog[7].server[0] droppedJobsTimout 0
scalar FogNoLB.fog[7].server[0] droppedJobsSLA 0
scalar FogNoLB.fog[7].server[0] droppedJobsTotal 50
scalar FogNoLB.fog[8].dispatcher localJobs 322842
scalar FogNoLB.fog[8].dispatcher remoteJobs 0
scalar FogNoLB.fog[8].dispatcher probeQueries 0
scalar FogNoLB.fog[8].dispatcher probeAnswers 0
scalar FogNoLB.fog[8].dispatcher droppedJobsSLA 0
scalar FogNoLB.fog[8].dispatcher jobs_class_1 322842
scalar FogNoLB.fog[8].dispatcher localJobs_class_1 322842
scalar FogNoLB.fog[8].server[0] rho 0.49913689494133
scalar FogNoLB.fog[8].server[0] congestionRatio 0
scalar FogNoLB.fog[8].server[0] totalJobs 322842
scalar FogNoLB.fog[8].server[0] droppedJobsQueue 49
scalar FogNoLB.fog[8].server[0] droppedJobsTimout 0
scalar FogNoLB.fog[8].server[0] droppedJobsSLA 0
scalar FogNoLB.fog[8].server[0] droppedJobsTotal 49
scalar FogNoLB.fog[9].dispatcher localJobs 323319
scalar FogNoLB.fog[9].dispatcher remoteJobs 0
scalar FogNoLB.fog[9].dispatcher probeQueries 0
scalar FogNoLB.fog[9].dispatcher probeAnswers 0
scalar FogNoLB.fog[9].dispatcher droppedJobsSLA 0
scalar FogNoLB.fog[9].dispatcher jobs_class_1 323319
scalar FogNoLB.fog[9].dispatcher localJobs_class_1 323319
scalar FogNoLB.fog[9].server[0] rho 0.49981352686882
scalar FogNoLB.fog[9].server[0] congestionRatio 0
scalar FogNoLB.fog[9].server[0] totalJobs 323319
scalar FogNoLB.fog[9].server[0] droppedJobsQueue 69
scalar FogNoLB.fog[9].server[0] droppedJobsTimout 0
scalar FogNoLB.fog[9].server[0] droppedJobsSLA 0
scalar FogNoLB.fog[9].server[0] droppedJobsTotal 69
scalar FogNoLB.fog[10].dispatcher localJobs 322868
scalar FogNoLB.fog[10].dispatcher remoteJobs 0
scalar FogNoLB.fog[10].dispatcher probeQueries 0
scalar FogNoLB.fog[10].dispatcher probeAnswers 0
scalar FogNoLB.fog[10].dispatcher droppedJobsSLA 0
scalar FogNoLB.fog[10].dispatcher jobs_class_1 322868
scalar FogNoLB.fog[10].dispatcher localJobs_class_1 322868
scalar FogNoLB.fog[10].server[0] rho 0.49918112158775
scalar FogNoLB.fog[10].server[0] congestionRatio 0
scalar FogNoLB.fog[10].server[0] totalJobs 322868
scalar FogNoLB.fog[10].server[0] droppedJobsQueue 48
scalar FogNoLB.fog[10].server[0] droppedJobsTimout 0
scalar FogNoLB.fog[10].server[0] droppedJobsSLA 0
scalar FogNoLB.fog[10].server[0] droppedJobsTotal 48
scalar FogNoLB.fog[11].dispatcher localJobs 322960
scalar FogNoLB.fog[11].dispatcher remoteJobs 0
scalar FogNoLB.fog[11].dispatcher probeQueries 0
scalar FogNoLB.fog[11].dispatcher probeAnswers 0
scalar FogNoLB.fog[11].dispatcher droppedJobsSLA 0
scalar FogNoLB.fog[11].dispatcher jobs_class_1 322960
scalar FogNoLB.fog[11].dispatcher localJobs_class_1 322960
scalar FogNoLB.fog[11].server[0] rho 0.49928531050682
scalar FogNoLB.fog[11].server[0] congestionRatio 0
scalar FogNoLB.fog[11].server[0] totalJobs 322960
scalar FogNoLB.fog[11].server[0] droppedJobsQueue 65
scalar FogNoLB.fog[11].server[0] droppedJobsTimout 0
scalar FogNoLB.fog[11].server[0] droppedJobsSLA 0
scalar FogNoLB.fog[11].server[0] droppedJobsTotal 65
scalar FogNoLB.fog[12].dispatcher localJobs 324056
scalar FogNoLB.fog[12].dispatcher remoteJobs 0
scalar FogNoLB.fog[12].dispatcher probeQueries 0
scalar FogNoLB.fog[12].dispatcher probeAnswers 0
scalar FogNoLB.fog[12].dispatcher droppedJobsSLA 0
scalar FogNoLB.fog[12].dispatcher jobs_class_1 324056
scalar FogNoLB.fog[12].dispatcher localJobs_class_1 324056
scalar FogNoLB.fog[12].server[0] rho 0.50097548961639
scalar FogNoLB.fog[12].server[0] congestionRatio 0
scalar FogNoLB.fog[12].server[0] totalJobs 324056
scalar FogNoLB.fog[12].server[0] droppedJobsQueue 60
scalar FogNoLB.fog[12].server[0] droppedJobsTimout 0
scalar FogNoLB.fog[12].server[0] droppedJobsSLA 0
scalar FogNoLB.fog[12].server[0] droppedJobsTotal 60
scalar FogNoLB.fog[13].dispatcher localJobs 325092
scalar FogNoLB.fog[13].dispatcher remoteJobs 0
scalar FogNoLB.fog[13].dispatcher probeQueries 0
scalar FogNoLB.fog[13].dispatcher probeAnswers 0
scalar FogNoLB.fog[13].dispatcher droppedJobsSLA 0
scalar FogNoLB.fog[13].dispatcher jobs_class_1 325092
scalar FogNoLB.fog[13].dispatcher localJobs_class_1 325092
scalar FogNoLB.fog[13].server[0] rho 0.50259095430374
scalar FogNoLB.fog[13].server[0] congestionRatio 0
scalar FogNoLB.fog[13].server[0] totalJobs 325092
scalar FogNoLB.fog[13].server[0] droppedJobsQueue 63
scalar FogNoLB.fog[13].server[0] droppedJobsTimout 0
scalar FogNoLB.fog[13].server[0] droppedJobsSLA 0
scalar FogNoLB.fog[13].server[0] droppedJobsTotal 63
scalar FogNoLB.fog[14].dispatcher localJobs 324179
scalar FogNoLB.fog[14].dispatcher remoteJobs 0
scalar FogNoLB.fog[14].dispatcher probeQueries 0
scalar FogNoLB.fog[14].dispatcher probeAnswers 0
scalar FogNoLB.fog[14].dispatcher droppedJobsSLA 0
scalar FogNoLB.fog[14].dispatcher jobs_class_1 324179
scalar FogNoLB.fog[14].dispatcher localJobs_class_1 324179
scalar FogNoLB.fog[14].server[0] rho 0.50122213363647
scalar FogNoLB.fog[14].server[0] congestionRatio 0
scalar FogNoLB.fog[14].server[0] totalJobs 324179
scalar FogNoLB.fog[14].server[0] droppedJobsQueue 53
scalar FogNoLB.fog[14].server[0] droppedJobsTimout 0
scalar FogNoLB.fog[14].server[0] droppedJobsSLA 0
scalar FogNoLB.fog[14].server[0] droppedJobsTotal 53
scalar FogNoLB.fog[15].dispatcher localJobs 323302
scalar FogNoLB.fog[15].dispatcher remoteJobs 0
scalar FogNoLB.fog[15].dispatcher probeQueries 0
scalar FogNoLB.fog[15].dispatcher probeAnswers 0
scalar FogNoLB.fog[15].dispatcher droppedJobsSLA 0
scalar FogNoLB.fog[15].dispatcher jobs_class_1 323302
scalar FogNoLB.fog[15].dispatcher localJobs_class_1 323302
scalar FogNoLB.fog[15].server[0] rho 0.49982944130898
scalar FogNoLB.fog[15].server[0] congestionRatio 0
scalar FogNoLB.fog[15].server[0] totalJobs 323302
scalar FogNoLB.fog[15].server[0] droppedJobsQueue 71
scalar FogNoLB.fog[15].server[0] droppedJobsTimout 0
scalar FogNoLB.fog[15].server[0] droppedJobsSLA 0
scalar FogNoLB.fog[15].server[0] droppedJobsTotal 71
scalar FogNoLB.fog[16].dispatcher localJobs 324113
scalar FogNoLB.fog[16].dispatcher remoteJobs 0
scalar FogNoLB.fog[16].dispatcher probeQueries 0
scalar FogNoLB.fog[16].dispatcher probeAnswers 0
scalar FogNoLB.fog[16].dispatcher droppedJobsSLA 0
scalar FogNoLB.fog[16].dispatcher jobs_class_1 324113
scalar FogNoLB.fog[16].dispatcher localJobs_class_1 324113
scalar FogNoLB.fog[16].server[0] rho 0.50108706951141
scalar FogNoLB.fog[16].server[0] congestionRatio 0
scalar FogNoLB.fog[16].server[0] totalJobs 324113
scalar FogNoLB.fog[16].server[0] droppedJobsQueue 44
scalar FogNoLB.fog[16].server[0] droppedJobsTimout 0
scalar FogNoLB.fog[16].server[0] droppedJobsSLA 0
scalar FogNoLB.fog[16].server[0] droppedJobsTotal 44
scalar FogNoLB.fog[17].dispatcher localJobs 323212
scalar FogNoLB.fog[17].dispatcher remoteJobs 0
scalar FogNoLB.fog[17].dispatcher probeQueries 0
scalar FogNoLB.fog[17].dispatcher probeAnswers 0
scalar FogNoLB.fog[17].dispatcher droppedJobsSLA 0
scalar FogNoLB.fog[17].dispatcher jobs_class_1 323212
scalar FogNoLB.fog[17].dispatcher localJobs_class_1 323212
scalar FogNoLB.fog[17].server[0] rho 0.49970859289169
scalar FogNoLB.fog[17].server[0] congestionRatio 0
scalar FogNoLB.fog[17].server[0] totalJobs 323212
scalar FogNoLB.fog[17].server[0] droppedJobsQueue 54
scalar FogNoLB.fog[17].server[0] droppedJobsTimout 0
scalar FogNoLB.fog[17].server[0] droppedJobsSLA 0
scalar FogNoLB.fog[17].server[0] droppedJobsTotal 54
scalar FogNoLB.fog[18].dispatcher localJobs 322433
scalar FogNoLB.fog[18].dispatcher remoteJobs 0
scalar FogNoLB.fog[18].dispatcher probeQueries 0
scalar FogNoLB.fog[18].dispatcher probeAnswers 0
scalar FogNoLB.fog[18].dispatcher droppedJobsSLA 0
scalar FogNoLB.fog[18].dispatcher jobs_class_1 322433
scalar FogNoLB.fog[18].dispatcher localJobs_class_1 322433
scalar FogNoLB.fog[18].server[0] rho 0.49845924973488
scalar FogNoLB.fog[18].server[0] congestionRatio 0
scalar FogNoLB.fog[18].server[0] totalJobs 322433
scalar FogNoLB.fog[18].server[0] droppedJobsQueue 57
scalar FogNoLB.fog[18].server[0] droppedJobsTimout 0
scalar FogNoLB.fog[18].server[0] droppedJobsSLA 0
scalar FogNoLB.fog[18].server[0] droppedJobsTotal 57
scalar FogNoLB.fog[19].dispatcher localJobs 323790
scalar FogNoLB.fog[19].dispatcher remoteJobs 0
scalar FogNoLB.fog[19].dispatcher probeQueries 0
scalar FogNoLB.fog[19].dispatcher probeAnswers 0
scalar FogNoLB.fog[19].dispatcher droppedJobsSLA 0
scalar FogNoLB.fog[19].dispatcher jobs_class_1 323790
scalar FogNoLB.fog[19].dispatcher localJobs_class_1 323790
scalar FogNoLB.fog[19].server[0] rho 0.50063395500183
scalar FogNoLB.fog[19].server[0] congestionRatio 0
scalar FogNoLB.fog[19].server[0] totalJobs 323790
scalar FogNoLB.fog[19].server[0] droppedJobsQueue 35
scalar FogNoLB.fog[19].server[0] droppedJobsTimout 0
scalar FogNoLB.fog[19].server[0] droppedJobsSLA 0
scalar FogNoLB.fog[19].server[0] droppedJobsTotal 35
scalar FogNoLB.fog[20].dispatcher localJobs 323441
scalar FogNoLB.fog[20].dispatcher remoteJobs 0
scalar FogNoLB.fog[20].dispatcher probeQueries 0
scalar FogNoLB.fog[20].dispatcher probeAnswers 0
scalar FogNoLB.fog[20].dispatcher droppedJobsSLA 0
scalar FogNoLB.fog[20].dispatcher jobs_class_1 323441
scalar FogNoLB.fog[20].dispatcher localJobs_class_1 323441
scalar FogNoLB.fog[20].server[0] rho 0.50004827976227
scalar FogNoLB.fog[20].server[0] congestionRatio 0
scalar FogNoLB.fog[20].server[0] totalJobs 323441
scalar FogNoLB.fog[20].server[0] droppedJobsQueue 51
scalar FogNoLB.fog[20].server[0] droppedJobsTimout 0
scalar FogNoLB.fog[20].server[0] droppedJobsSLA 0
scalar FogNoLB.fog[20].server[0] droppedJobsTotal 51
scalar FogNoLB.fog[21].dispatcher localJobs 323722
scalar FogNoLB.fog[21].dispatcher remoteJobs 0
scalar FogNoLB.fog[21].dispatcher probeQueries 0
scalar FogNoLB.fog[21].dispatcher probeAnswers 0
scalar FogNoLB.fog[21].dispatcher droppedJobsSLA 0
scalar FogNoLB.fog[21].dispatcher jobs_class_1 323722
scalar FogNoLB.fog[21].dispatcher localJobs_class_1 323722
scalar FogNoLB.fog[21].server[0] rho 0.50047844648361
scalar FogNoLB.fog[21].server[0] congestionRatio 0
scalar FogNoLB.fog[21].server[0] totalJobs 323722
scalar FogNoLB.fog[21].server[0] droppedJobsQueue 57
scalar FogNoLB.fog[21].server[0] droppedJobsTimout 0
scalar FogNoLB.fog[21].server[0] droppedJobsSLA 0
scalar FogNoLB.fog[21].server[0] droppedJobsTotal 57
scalar FogNoLB.fog[22].dispatcher localJobs 323556
scalar FogNoLB.fog[22].dispatcher remoteJobs 0
scalar FogNoLB.fog[22].dispatcher probeQueries 0
scalar FogNoLB.fog[22].dispatcher probeAnswers 0
scalar FogNoLB.fog[22].dispatcher droppedJobsSLA 0
scalar FogNoLB.fog[22].dispatcher jobs_class_1 323556
scalar FogNoLB.fog[22].dispatcher localJobs_class_1 323556
scalar FogNoLB.fog[22].server[0] rho 0.50023806095123
scalar FogNoLB.fog[22].server[0] congestionRatio 0
scalar FogNoLB.fog[22].server[0] totalJobs 323556
scalar FogNoLB.fog[22].server[0] droppedJobsQueue 52
scalar FogNoLB.fog[22].server[0] droppedJobsTimout 0
scalar FogNoLB.fog[22].server[0] droppedJobsSLA 0
scalar FogNoLB.fog[22].server[0] droppedJobsTotal 52
scalar FogNoLB.fog[23].dispatcher localJobs 322847
scalar FogNoLB.fog[23].dispatcher remoteJobs 0
scalar FogNoLB.fog[23].dispatcher probeQueries 0
scalar FogNoLB.fog[23].dispatcher probeAnswers 0
scalar FogNoLB.fog[23].dispatcher droppedJobsSLA 0
scalar FogNoLB.fog[23].dispatcher jobs_class_1 322847
scalar FogNoLB.fog[23].dispatcher localJobs_class_1 322847
scalar FogNoLB.fog[23].server[0] rho 0.49913886189461
scalar FogNoLB.fog[23].server[0] congestionRatio 0
scalar FogNoLB.fog[23].server[0] totalJobs 322847
scalar FogNoLB.fog[23].server[0] droppedJobsQueue 55
scalar FogNoLB.fog[23].server[0] droppedJobsTimout 0
scalar FogNoLB.fog[23].server[0] droppedJobsSLA 0
scalar FogNoLB.fog[23].server[0] droppedJobsTotal 55
scalar FogNoLB.fog[24].dispatcher localJobs 323873
scalar FogNoLB.fog[24].dispatcher remoteJobs 0
scalar FogNoLB.fog[24].dispatcher probeQueries 0
scalar FogNoLB.fog[24].dispatcher probeAnswers 0
scalar FogNoLB.fog[24].dispatcher droppedJobsSLA 0
scalar FogNoLB.fog[24].dispatcher jobs_class_1 323873
scalar FogNoLB.fog[24].dispatcher localJobs_class_1 323873
scalar FogNoLB.fog[24].server[0] rho 0.50068336725235
scalar FogNoLB.fog[24].server[0] congestionRatio 0
scalar FogNoLB.fog[24].server[0] totalJobs 323873
scalar FogNoLB.fog[24].server[0] droppedJobsQueue 73
scalar FogNoLB.fog[24].server[0] droppedJobsTimout 0
scalar FogNoLB.fog[24].server[0] droppedJobsSLA 0
scalar FogNoLB.fog[24].server[0] droppedJobsTotal 73
scalar FogNoLB.fog[25].dispatcher localJobs 323684
scalar FogNoLB.fog[25].dispatcher remoteJobs 0
scalar FogNoLB.fog[25].dispatcher probeQueries 0
scalar FogNoLB.fog[25].dispatcher probeAnswers 0
scalar FogNoLB.fog[25].dispatcher droppedJobsSLA 0
scalar FogNoLB.fog[25].dispatcher jobs_class_1 323684
scalar FogNoLB.fog[25].dispatcher localJobs_class_1 323684
scalar FogNoLB.fog[25].server[0] rho 0.50041460990906
scalar FogNoLB.fog[25].server[0] congestionRatio 0
scalar FogNoLB.fog[25].server[0] totalJobs 323684
scalar FogNoLB.fog[25].server[0] droppedJobsQueue 56
scalar FogNoLB.fog[25].server[0] droppedJobsTimout 0
scalar FogNoLB.fog[25].server[0] droppedJobsSLA 0
scalar FogNoLB.fog[25].server[0] droppedJobsTotal 56
scalar FogNoLB.fog[26].dispatcher localJobs 323314
scalar FogNoLB.fog[26].dispatcher remoteJobs 0
scalar FogNoLB.fog[26].dispatcher probeQueries 0
scalar FogNoLB.fog[26].dispatcher probeAnswers 0
scalar FogNoLB.fog[26].dispatcher droppedJobsSLA 0
scalar FogNoLB.fog[26].dispatcher jobs_class_1 323314
scalar FogNoLB.fog[26].dispatcher localJobs_class_1 323314
scalar FogNoLB.fog[26].server[0] rho 0.49983951449394
scalar FogNoLB.fog[26].server[0] congestionRatio 0
scalar FogNoLB.fog[26].server[0] totalJobs 323314
scalar FogNoLB.fog[26].server[0] droppedJobsQueue 62
scalar FogNoLB.fog[26].server[0] droppedJobsTimout 0
scalar FogNoLB.fog[26].server[0] droppedJobsSLA 0
scalar FogNoLB.fog[26].server[0] droppedJobsTotal 62
scalar FogNoLB.fog[27].dispatcher localJobs 323268
scalar FogNoLB.fog[27].dispatcher remoteJobs 0
scalar FogNoLB.fog[27].dispatcher probeQueries 0
scalar FogNoLB.fog[27].dispatcher probeAnswers 0
scalar FogNoLB.fog[27].dispatcher droppedJobsSLA 0
scalar FogNoLB.fog[27].dispatcher jobs_class_1 323268
scalar FogNoLB.fog[27].dispatcher localJobs_class_1 323268
scalar FogNoLB.fog[27].server[0] rho 0.49976894259453
scalar FogNoLB.fog[27].server[0] congestionRatio 0
scalar FogNoLB.fog[27].server[0] totalJobs 323268
scalar FogNoLB.fog[27].server[0] droppedJobsQueue 60
scalar FogNoLB.fog[27].server[0] droppedJobsTimout 0
scalar FogNoLB.fog[27].server[0] droppedJobsSLA 0
scalar FogNoLB.fog[27].server[0] droppedJobsTotal 60
scalar FogNoLB.fog[28].dispatcher localJobs 322545
scalar FogNoLB.fog[28].dispatcher remoteJobs 0
scalar FogNoLB.fog[28].dispatcher probeQueries 0
scalar FogNoLB.fog[28].dispatcher probeAnswers 0
scalar FogNoLB.fog[28].dispatcher droppedJobsSLA 0
scalar FogNoLB.fog[28].dispatcher jobs_class_1 322545
scalar FogNoLB.fog[28].dispatcher localJobs_class_1 322545
scalar FogNoLB.fog[28].server[0] rho 0.49866145849228
scalar FogNoLB.fog[28].server[0] congestionRatio 0
scalar FogNoLB.fog[28].server[0] totalJobs 322545
scalar FogNoLB.fog[28].server[0] droppedJobsQueue 55
scalar FogNoLB.fog[28].server[0] droppedJobsTimout 0
scalar FogNoLB.fog[28].server[0] droppedJobsSLA 0
scalar FogNoLB.fog[28].server[0] droppedJobsTotal 55
scalar FogNoLB.fog[29].dispatcher localJobs 323694
scalar FogNoLB.fog[29].dispatcher remoteJobs 0
scalar FogNoLB.fog[29].dispatcher probeQueries 0
scalar FogNoLB.fog[29].dispatcher probeAnswers 0
scalar FogNoLB.fog[29].dispatcher droppedJobsSLA 0
scalar FogNoLB.fog[29].dispatcher jobs_class_1 323694
scalar FogNoLB.fog[29].dispatcher localJobs_class_1 323694
scalar FogNoLB.fog[29].server[0] rho 0.50043404102325
scalar FogNoLB.fog[29].server[0] congestionRatio 0
scalar FogNoLB.fog[29].server[0] totalJobs 323694
scalar FogNoLB.fog[29].server[0] droppedJobsQueue 62
scalar FogNoLB.fog[29].server[0] droppedJobsTimout 0
scalar FogNoLB.fog[29].server[0] droppedJobsSLA 0
scalar FogNoLB.fog[29].server[0] droppedJobsTotal 62
scalar FogNoLB.fog[30].dispatcher localJobs 322320
scalar FogNoLB.fog[30].dispatcher remoteJobs 0
scalar FogNoLB.fog[30].dispatcher probeQueries 0
scalar FogNoLB.fog[30].dispatcher probeAnswers 0
scalar FogNoLB.fog[30].dispatcher droppedJobsSLA 0
scalar FogNoLB.fog[30].dispatcher jobs_class_1 322320
scalar FogNoLB.fog[30].dispatcher localJobs_class_1 322320
scalar FogNoLB.fog[30].server[0] rho 0.49831929802895
scalar FogNoLB.fog[30].server[0] congestionRatio 0
scalar FogNoLB.fog[30].server[0] totalJobs 322320
scalar FogNoLB.fog[30].server[0] droppedJobsQueue 43
scalar FogNoLB.fog[30].server[0] droppedJobsTimout 0
scalar FogNoLB.fog[30].server[0] droppedJobsSLA 0
scalar FogNoLB.fog[30].server[0] droppedJobsTotal 43
scalar FogNoLB.fog[31].dispatcher localJobs 323138
scalar FogNoLB.fog[31].dispatcher remoteJobs 0
scalar FogNoLB.fog[31].dispatcher probeQueries 0
scalar FogNoLB.fog[31].dispatcher probeAnswers 0
scalar FogNoLB.fog[31].dispatcher droppedJobsSLA 0
scalar FogNoLB.fog[31].dispatcher jobs_class_1 323138
scalar FogNoLB.fog[31].dispatcher localJobs_class_1 323138
scalar FogNoLB.fog[31].server[0] rho 0.49956029653549
scalar FogNoLB.fog[31].server[0] congestionRatio 0
scalar FogNoLB.fog[31].server[0] totalJobs 323138
scalar FogNoLB.fog[31].server[0] droppedJobsQueue 60
scalar FogNoLB.fog[31].server[0] droppedJobsTimout 0
scalar FogNoLB.fog[31].server[0] droppedJobsSLA 0
scalar FogNoLB.fog[31].server[0] droppedJobsTotal 60
scalar FogNoLB.fog[32].dispatcher localJobs 323070
scalar FogNoLB.fog[32].dispatcher remoteJobs 0
scalar FogNoLB.fog[32].dispatcher probeQueries 0
scalar FogNoLB.fog[32].dispatcher probeAnswers 0
scalar FogNoLB.fog[32].dispatcher droppedJobsSLA 0
scalar FogNoLB.fog[32].dispatcher jobs_class_1 323070
scalar FogNoLB.fog[32].dispatcher localJobs_class_1 323070
scalar FogNoLB.fog[32].server[0] rho 0.49948811531067
scalar FogNoLB.fog[32].server[0] congestionRatio 0
scalar FogNoLB.fog[32].server[0] totalJobs 323070
scalar FogNoLB.fog[32].server[0] droppedJobsQueue 51
scalar FogNoLB.fog[32].server[0] droppedJobsTimout 0
scalar FogNoLB.fog[32].server[0] droppedJobsSLA 0
scalar FogNoLB.fog[32].server[0] droppedJobsTotal 51
scalar FogNoLB.fog[33].dispatcher localJobs 322521
scalar FogNoLB.fog[33].dispatcher remoteJobs 0
scalar FogNoLB.fog[33].dispatcher probeQueries 0
scalar FogNoLB.fog[33].dispatcher probeAnswers 0
scalar FogNoLB.fog[33].dispatcher droppedJobsSLA 0
scalar FogNoLB.fog[33].dispatcher jobs_class_1 322521
scalar FogNoLB.fog[33].dispatcher localJobs_class_1 322521
scalar FogNoLB.fog[33].server[0] rho 0.498620480299
scalar FogNoLB.fog[33].server[0] congestionRatio 0
scalar FogNoLB.fog[33].server[0] totalJobs 322521
scalar FogNoLB.fog[33].server[0] droppedJobsQueue 58
scalar FogNoLB.fog[33].server[0] droppedJobsTimout 0
scalar FogNoLB.fog[33].server[0] droppedJobsSLA 0
scalar FogNoLB.fog[33].server[0] droppedJobsTotal 58
scalar FogNoLB.fog[34].dispatcher localJobs 323460
scalar FogNoLB.fog[34].dispatcher remoteJobs 0
scalar FogNoLB.fog[34].dispatcher probeQueries 0
scalar FogNoLB.fog[34].dispatcher probeAnswers 0
scalar FogNoLB.fog[34].dispatcher droppedJobsSLA 0
scalar FogNoLB.fog[34].dispatcher jobs_class_1 323460
scalar FogNoLB.fog[34].dispatcher localJobs_class_1 323460
scalar FogNoLB.fog[34].server[0] rho 0.50005966424942
scalar FogNoLB.fog[34].server[0] congestionRatio 0
scalar FogNoLB.fog[34].server[0] totalJobs 323460
scalar FogNoLB.fog[34].server[0] droppedJobsQueue 53
scalar FogNoLB.fog[34].server[0] droppedJobsTimout 0
scalar FogNoLB.fog[34].server[0] droppedJobsSLA 0
scalar FogNoLB.fog[34].server[0] droppedJobsTotal 53
scalar FogNoLB.fog[35].dispatcher localJobs 323777
scalar FogNoLB.fog[35].dispatcher remoteJobs 0
scalar FogNoLB.fog[35].dispatcher probeQueries 0
scalar FogNoLB.fog[35].dispatcher probeAnswers 0
scalar FogNoLB.fog[35].dispatcher droppedJobsSLA 0
scalar FogNoLB.fog[35].dispatcher jobs_class_1 323777
scalar FogNoLB.fog[35].dispatcher localJobs_class_1 323777
scalar FogNoLB.fog[35].server[0] rho 0.50055968761444
scalar FogNoLB.fog[35].server[0] congestionRatio 0
scalar FogNoLB.fog[35].server[0] totalJobs 323777
scalar FogNoLB.fog[35].server[0] droppedJobsQueue 55
scalar FogNoLB.fog[35].server[0] droppedJobsTimout 0
scalar FogNoLB.fog[35].server[0] droppedJobsSLA 0
scalar FogNoLB.fog[35].server[0] droppedJobsTotal 55
scalar FogNoLB.fog[36].dispatcher localJobs 323523
scalar FogNoLB.fog[36].dispatcher remoteJobs 0
scalar FogNoLB.fog[36].dispatcher probeQueries 0
scalar FogNoLB.fog[36].dispatcher probeAnswers 0
scalar FogNoLB.fog[36].dispatcher droppedJobsSLA 0
scalar FogNoLB.fog[36].dispatcher jobs_class_1 323523
scalar FogNoLB.fog[36].dispatcher localJobs_class_1 323523
scalar FogNoLB.fog[36].server[0] rho 0.50022286176682
scalar FogNoLB.fog[36].server[0] congestionRatio 0
scalar FogNoLB.fog[36].server[0] totalJobs 323523
scalar FogNoLB.fog[36].server[0] droppedJobsQueue 36
scalar FogNoLB.fog[36].server[0] droppedJobsTimout 0
scalar FogNoLB.fog[36].server[0] droppedJobsSLA 0
scalar FogNoLB.fog[36].server[0] droppedJobsTotal 36
scalar FogNoLB.fog[37].dispatcher localJobs 323749
scalar FogNoLB.fog[37].dispatcher remoteJobs 0
scalar FogNoLB.fog[37].dispatcher probeQueries 0
scalar FogNoLB.fog[37].dispatcher probeAnswers 0
scalar FogNoLB.fog[37].dispatcher droppedJobsSLA 0
scalar FogNoLB.fog[37].dispatcher jobs_class_1 323749
scalar FogNoLB.fog[37].dispatcher localJobs_class_1 323749
scalar FogNoLB.fog[37].server[0] rho 0.50052255392075
scalar FogNoLB.fog[37].server[0] congestionRatio 0
scalar FogNoLB.fog[37].server[0] totalJobs 323749
scalar FogNoLB.fog[37].server[0] droppedJobsQueue 50
scalar FogNoLB.fog[37].server[0] droppedJobsTimout 0
scalar FogNoLB.fog[37].server[0] droppedJobsSLA 0
scalar FogNoLB.fog[37].server[0] droppedJobsTotal 50
scalar FogNoLB.fog[38].dispatcher localJobs 324252
scalar FogNoLB.fog[38].dispatcher remoteJobs 0
scalar FogNoLB.fog[38].dispatcher probeQueries 0
scalar FogNoLB.fog[38].dispatcher probeAnswers 0
scalar FogNoLB.fog[38].dispatcher droppedJobsSLA 0
scalar FogNoLB.fog[38].dispatcher jobs_class_1 324252
scalar FogNoLB.fog[38].dispatcher localJobs_class_1 324252
scalar FogNoLB.fog[38].server[0] rho 0.50129282474518
scalar FogNoLB.fog[38].server[0] congestionRatio 0
scalar FogNoLB.fog[38].server[0] totalJobs 324252
scalar FogNoLB.fog[38].server[0] droppedJobsQueue 56
scalar FogNoLB.fog[38].server[0] droppedJobsTimout 0
scalar FogNoLB.fog[38].server[0] droppedJobsSLA 0
scalar FogNoLB.fog[38].server[0] droppedJobsTotal 56
scalar FogNoLB.fog[39].dispatcher localJobs 322853
scalar FogNoLB.fog[39].dispatcher remoteJobs 0
scalar FogNoLB.fog[39].dispatcher probeQueries 0
scalar FogNoLB.fog[39].dispatcher probeAnswers 0
scalar FogNoLB.fog[39].dispatcher droppedJobsSLA 0
scalar FogNoLB.fog[39].dispatcher jobs_class_1 322853
scalar FogNoLB.fog[39].dispatcher localJobs_class_1 322853
scalar FogNoLB.fog[39].server[0] rho 0.49913069605827
scalar FogNoLB.fog[39].server[0] congestionRatio 0
scalar FogNoLB.fog[39].server[0] totalJobs 322853
scalar FogNoLB.fog[39].server[0] droppedJobsQueue 45
scalar FogNoLB.fog[39].server[0] droppedJobsTimout 0
scalar FogNoLB.fog[39].server[0] droppedJobsSLA 0
scalar FogNoLB.fog[39].server[0] droppedJobsTotal 45
scalar FogNoLB.fog[40].dispatcher localJobs 323017
scalar FogNoLB.fog[40].dispatcher remoteJobs 0
scalar FogNoLB.fog[40].dispatcher probeQueries 0
scalar FogNoLB.fog[40].dispatcher probeAnswers 0
scalar FogNoLB.fog[40].dispatcher droppedJobsSLA 0
scalar FogNoLB.fog[40].dispatcher jobs_class_1 323017
scalar FogNoLB.fog[40].dispatcher localJobs_class_1 323017
scalar FogNoLB.fog[40].server[0] rho 0.49937471747398
scalar FogNoLB.fog[40].server[0] congestionRatio 0
scalar FogNoLB.fog[40].server[0] totalJobs 323017
scalar FogNoLB.fog[40].server[0] droppedJobsQueue 62
scalar FogNoLB.fog[40].server[0] droppedJobsTimout 0
scalar FogNoLB.fog[40].server[0] droppedJobsSLA 0
scalar FogNoLB.fog[40].server[0] droppedJobsTotal 62
scalar FogNoLB.fog[41].dispatcher localJobs 323558
scalar FogNoLB.fog[41].dispatcher remoteJobs 0
scalar FogNoLB.fog[41].dispatcher probeQueries 0
scalar FogNoLB.fog[41].dispatcher probeAnswers 0
scalar FogNoLB.fog[41].dispatcher droppedJobsSLA 0
scalar FogNoLB.fog[41].dispatcher jobs_class_1 323558
scalar FogNoLB.fog[41].dispatcher localJobs_class_1 323558
scalar FogNoLB.fog[41].server[0] rho 0.50024265050888
scalar FogNoLB.fog[41].server[0] congestionRatio 0
scalar FogNoLB.fog[41].server[0] totalJobs 323558
scalar FogNoLB.fog[41].server[0] droppedJobsQueue 51
scalar FogNoLB.fog[41].server[0] droppedJobsTimout 0
scalar FogNoLB.fog[41].server[0] droppedJobsSLA 0
scalar FogNoLB.fog[41].server[0] droppedJobsTotal 51
scalar FogNoLB.fog[42].dispatcher localJobs 323331
scalar FogNoLB.fog[42].dispatcher remoteJobs 0
scalar FogNoLB.fog[42].dispatcher probeQueries 0
scalar FogNoLB.fog[42].dispatcher probeAnswers 0
scalar FogNoLB.fog[42].dispatcher droppedJobsSLA 0
scalar FogNoLB.fog[42].dispatcher jobs_class_1 323331
scalar FogNoLB.fog[42].dispatcher localJobs_class_1 323331
scalar FogNoLB.fog[42].server[0] rho 0.49987068772316
scalar FogNoLB.fog[42].server[0] congestionRatio 0
scalar FogNoLB.fog[42].server[0] totalJobs 323331
scalar FogNoLB.fog[42].server[0] droppedJobsQueue 56
scalar FogNoLB.fog[42].server[0] droppedJobsTimout 0
scalar FogNoLB.fog[42].server[0] droppedJobsSLA 0
scalar FogNoLB.fog[42].server[0] droppedJobsTotal 56
scalar FogNoLB.fog[43].dispatcher localJobs 322939
scalar FogNoLB.fog[43].dispatcher remoteJobs 0
scalar FogNoLB.fog[43].dispatcher probeQueries 0
scalar FogNoLB.fog[43].dispatcher probeAnswers 0
scalar FogNoLB.fog[43].dispatcher droppedJobsSLA 0
scalar FogNoLB.fog[43].dispatcher jobs_class_1 322939
scalar FogNoLB.fog[43].dispatcher localJobs_class_1 322939
scalar FogNoLB.fog[43].server[0] rho 0.49930036067963
scalar FogNoLB.fog[43].server[0] congestionRatio 0
scalar FogNoLB.fog[43].server[0] totalJobs 322939
scalar FogNoLB.fog[43].server[0] droppedJobsQueue 49
scalar FogNoLB.fog[43].server[0] droppedJobsTimout 0
scalar FogNoLB.fog[43].server[0] droppedJobsSLA 0
scalar FogNoLB.fog[43].server[0] droppedJobsTotal 49
scalar FogNoLB.fog[44].dispatcher localJobs 324091
scalar FogNoLB.fog[44].dispatcher remoteJobs 0
scalar FogNoLB.fog[44].dispatcher probeQueries 0
scalar FogNoLB.fog[44].dispatcher probeAnswers 0
scalar FogNoLB.fog[44].dispatcher droppedJobsSLA 0
scalar FogNoLB.fog[44].dispatcher jobs_class_1 324091
scalar FogNoLB.fog[44].dispatcher localJobs_class_1 324091
scalar FogNoLB.fog[44].server[0] rho 0.50106012821198
scalar FogNoLB.fog[44].server[0] congestionRatio 0
scalar FogNoLB.fog[44].server[0] totalJobs 324091
scalar FogNoLB.fog[44].server[0] droppedJobsQueue 68
scalar FogNoLB.fog[44].server[0] droppedJobsTimout 0
scalar FogNoLB.fog[44].server[0] droppedJobsSLA 0
scalar FogNoLB.fog[44].server[0] droppedJobsTotal 68
scalar FogNoLB.fog[45].dispatcher localJobs 322071
scalar FogNoLB.fog[45].dispatcher remoteJobs 0
scalar FogNoLB.fog[45].dispatcher probeQueries 0
scalar FogNoLB.fog[45].dispatcher probeAnswers 0
scalar FogNoLB.fog[45].dispatcher droppedJobsSLA 0
scalar FogNoLB.fog[45].dispatcher jobs_class_1 322071
scalar FogNoLB.fog[45].dispatcher localJobs_class_1 322071
scalar FogNoLB.fog[45].server[0] rho 0.49794584512711
scalar FogNoLB.fog[45].server[0] congestionRatio 0
scalar FogNoLB.fog[45].server[0] totalJobs 322071
scalar FogNoLB.fog[45].server[0] droppedJobsQueue 54
scalar FogNoLB.fog[45].server[0] droppedJobsTimout 0
scalar FogNoLB.fog[45].server[0] droppedJobsSLA 0
scalar FogNoLB.fog[45].server[0] droppedJobsTotal 54
scalar FogNoLB.fog[46].dispatcher localJobs 323704
scalar FogNoLB.fog[46].dispatcher remoteJobs 0
scalar FogNoLB.fog[46].dispatcher probeQueries 0
scalar FogNoLB.fog[46].dispatcher probeAnswers 0
scalar FogNoLB.fog[46].dispatcher droppedJobsSLA 0
scalar FogNoLB.fog[46].dispatcher jobs_class_1 323704
scalar FogNoLB.fog[46].dispatcher localJobs_class_1 323704
scalar FogNoLB.fog[46].server[0] rho 0.50043916702271
scalar FogNoLB.fog[46].server[0] congestionRatio 0
scalar FogNoLB.fog[46].server[0] totalJobs 323704
scalar FogNoLB.fog[46].server[0] droppedJobsQueue 70
scalar FogNoLB.fog[46].server[0] droppedJobsTimout 0
scalar FogNoLB.fog[46].server[0] droppedJobsSLA 0
scalar FogNoLB.fog[46].server[0] droppedJobsTotal 70
scalar FogNoLB.fog[47].dispatcher localJobs 322102
scalar FogNoLB.fog[47].dispatcher remoteJobs 0
scalar FogNoLB.fog[47].dispatcher probeQueries 0
scalar FogNoLB.fog[47].dispatcher probeAnswers 0
scalar FogNoLB.fog[47].dispatcher droppedJobsSLA 0
scalar FogNoLB.fog[47].dispatcher jobs_class_1 322102
scalar FogNoLB.fog[47].dispatcher localJobs_class_1 322102
scalar FogNoLB.fog[47].server[0] rho 0.49796089529991
scalar FogNoLB.fog[47].server[0] congestionRatio 0
scalar FogNoLB.fog[47].server[0] totalJobs 322102
scalar FogNoLB.fog[47].server[0] droppedJobsQueue 52
scalar FogNoLB.fog[47].server[0] droppedJobsTimout 0
scalar FogNoLB.fog[47].server[0] droppedJobsSLA 0
scalar FogNoLB.fog[47].server[0] droppedJobsTotal 52
scalar FogNoLB.fog[48].dispatcher localJobs 323192
scalar FogNoLB.fog[48].dispatcher remoteJobs 0
scalar FogNoLB.fog[48].dispatcher probeQueries 0
scalar FogNoLB.fog[48].dispatcher probeAnswers 0
scalar FogNoLB.fog[48].dispatcher droppedJobsSLA 0
scalar FogNoLB.fog[48].dispatcher jobs_class_1 323192
scalar FogNoLB.fog[48].dispatcher localJobs_class_1 323192
scalar FogNoLB.fog[48].server[0] rho 0.49968174099922
scalar FogNoLB.fog[48].server[0] congestionRatio 0
scalar FogNoLB.fog[48].server[0] totalJobs 323192
scalar FogNoLB.fog[48].server[0] droppedJobsQueue 45
scalar FogNoLB.fog[48].server[0] droppedJobsTimout 0
scalar FogNoLB.fog[48].server[0] droppedJobsSLA 0
scalar FogNoLB.fog[48].server[0] droppedJobsTotal 45
scalar FogNoLB.fog[49].dispatcher localJobs 323074
scalar FogNoLB.fog[49].dispatcher remoteJobs 0
scalar FogNoLB.fog[49].dispatcher probeQueries 0
scalar FogNoLB.fog[49].dispatcher probeAnswers 0
scalar FogNoLB.fog[49].dispatcher droppedJobsSLA 0
scalar FogNoLB.fog[49].dispatcher jobs_class_1 323074
scalar FogNoLB.fog[49].dispatcher localJobs_class_1 323074
scalar FogNoLB.fog[49].server[0] rho 0.49949514865875
scalar FogNoLB.fog[49].server[0] congestionRatio 0
scalar FogNoLB.fog[49].server[0] totalJobs 323074
scalar FogNoLB.fog[49].server[0] droppedJobsQueue 47
scalar FogNoLB.fog[49].server[0] droppedJobsTimout 0
scalar FogNoLB.fog[49].server[0] droppedJobsSLA 0
scalar FogNoLB.fog[49].server[0] droppedJobsTotal 47
scalar FogNoLB.fog[50].dispatcher localJobs 322459
scalar FogNoLB.fog[50].dispatcher remoteJobs 0
scalar FogNoLB.fog[50].dispatcher probeQueries 0
scalar FogNoLB.fog[50].dispatcher probeAnswers 0
scalar FogNoLB.fog[50].dispatcher droppedJobsSLA 0
scalar FogNoLB.fog[50].dispatcher jobs_class_1 322459
scalar FogNoLB.fog[50].dispatcher localJobs_class_1 322459
scalar FogNoLB.fog[50].server[0] rho 0.4984929561615
scalar FogNoLB.fog[50].server[0] congestionRatio 0
scalar FogNoLB.fog[50].server[0] totalJobs 322459
scalar FogNoLB.fog[50].server[0] droppedJobsQueue 56
scalar FogNoLB.fog[50].server[0] droppedJobsTimout 0
scalar FogNoLB.fog[50].server[0] droppedJobsSLA 0
scalar FogNoLB.fog[50].server[0] droppedJobsTotal 56
scalar FogNoLB.fog[51].dispatcher localJobs 322649
scalar FogNoLB.fog[51].dispatcher remoteJobs 0
scalar FogNoLB.fog[51].dispatcher probeQueries 0
scalar FogNoLB.fog[51].dispatcher probeAnswers 0
scalar FogNoLB.fog[51].dispatcher droppedJobsSLA 0
scalar FogNoLB.fog[51].dispatcher jobs_class_1 322649
scalar FogNoLB.fog[51].dispatcher localJobs_class_1 322649
scalar FogNoLB.fog[51].server[0] rho 0.49879911541939
scalar FogNoLB.fog[51].server[0] congestionRatio 0
scalar FogNoLB.fog[51].server[0] totalJobs 322649
scalar FogNoLB.fog[51].server[0] droppedJobsQueue 62
scalar FogNoLB.fog[51].server[0] droppedJobsTimout 0
scalar FogNoLB.fog[51].server[0] droppedJobsSLA 0
scalar FogNoLB.fog[51].server[0] droppedJobsTotal 62
scalar FogNoLB.fog[52].dispatcher localJobs 322994
scalar FogNoLB.fog[52].dispatcher remoteJobs 0
scalar FogNoLB.fog[52].dispatcher probeQueries 0
scalar FogNoLB.fog[52].dispatcher probeAnswers 0
scalar FogNoLB.fog[52].dispatcher droppedJobsSLA 0
scalar FogNoLB.fog[52].dispatcher jobs_class_1 322994
scalar FogNoLB.fog[52].dispatcher localJobs_class_1 322994
scalar FogNoLB.fog[52].server[0] rho 0.49933558702469
scalar FogNoLB.fog[52].server[0] congestionRatio 0
scalar FogNoLB.fog[52].server[0] totalJobs 322994
scalar FogNoLB.fog[52].server[0] droppedJobsQueue 69
scalar FogNoLB.fog[52].server[0] droppedJobsTimout 0
scalar FogNoLB.fog[52].server[0] droppedJobsSLA 0
scalar FogNoLB.fog[52].server[0] droppedJobsTotal 69
scalar FogNoLB.fog[53].dispatcher localJobs 323625
scalar FogNoLB.fog[53].dispatcher remoteJobs 0
scalar FogNoLB.fog[53].dispatcher probeQueries 0
scalar FogNoLB.fog[53].dispatcher probeAnswers 0
scalar FogNoLB.fog[53].dispatcher droppedJobsSLA 0
scalar FogNoLB.fog[53].dispatcher jobs_class_1 323625
scalar FogNoLB.fog[53].dispatcher localJobs_class_1 323625
scalar FogNoLB.fog[53].server[0] rho 0.50032514333725
scalar FogNoLB.fog[53].server[0] congestionRatio 0
scalar FogNoLB.fog[53].server[0] totalJobs 323625
scalar FogNoLB.fog[53].server[0] droppedJobsQueue 64
scalar FogNoLB.fog[53].server[0] droppedJobsTimout 0
scalar FogNoLB.fog[53].server[0] droppedJobsSLA 0
scalar FogNoLB.fog[53].server[0] droppedJobsTotal 64
scalar FogNoLB.fog[54].dispatcher localJobs 323584
scalar FogNoLB.fog[54].dispatcher remoteJobs 0
scalar FogNoLB.fog[54].dispatcher probeQueries 0
scalar FogNoLB.fog[54].dispatcher probeAnswers 0
scalar FogNoLB.fog[54].dispatcher droppedJobsSLA 0
scalar FogNoLB.fog[54].dispatcher jobs_class_1 323584
scalar FogNoLB.fog[54].dispatcher localJobs_class_1 323584
scalar FogNoLB.fog[54].server[0] rho 0.50026875734329
scalar FogNoLB.fog[54].server[0] congestionRatio 0
scalar FogNoLB.fog[54].server[0] totalJobs 323584
scalar FogNoLB.fog[54].server[0] droppedJobsQueue 63
scalar FogNoLB.fog[54].server[0] droppedJobsTimout 0
scalar FogNoLB.fog[54].server[0] droppedJobsSLA 0
scalar FogNoLB.fog[54].server[0] droppedJobsTotal 63
scalar FogNoLB.fog[55].dispatcher localJobs 323278
scalar FogNoLB.fog[55].dispatcher remoteJobs 0
scalar FogNoLB.fog[55].dispatcher probeQueries 0
scalar FogNoLB.fog[55].dispatcher probeAnswers 0
scalar FogNoLB.fog[55].dispatcher droppedJobsSLA 0
scalar FogNoLB.fog[55].dispatcher jobs_class_1 323278
scalar FogNoLB.fog[55].dispatcher localJobs_class_1 323278
scalar FogNoLB.fog[55].server[0] rho 0.49979159235954
scalar FogNoLB.fog[55].server[0] congestionRatio 0
scalar FogNoLB.fog[55].server[0] totalJobs 323278
scalar FogNoLB.fog[55].server[0] droppedJobsQueue 49
scalar FogNoLB.fog[55].server[0] droppedJobsTimout 0
scalar FogNoLB.fog[55].server[0] droppedJobsSLA 0
scalar FogNoLB.fog[55].server[0] droppedJobsTotal 49
scalar FogNoLB.fog[56].dispatcher localJobs 323600
scalar FogNoLB.fog[56].dispatcher remoteJobs 0
scalar FogNoLB.fog[56].dispatcher probeQueries 0
scalar FogNoLB.fog[56].dispatcher probeAnswers 0
scalar FogNoLB.fog[56].dispatcher droppedJobsSLA 0
scalar FogNoLB.fog[56].dispatcher jobs_class_1 323600
scalar FogNoLB.fog[56].dispatcher localJobs_class_1 323600
scalar FogNoLB.fog[56].server[0] rho 0.5002675652504
scalar FogNoLB.fog[56].server[0] congestionRatio 0
scalar FogNoLB.fog[56].server[0] totalJobs 323600
scalar FogNoLB.fog[56].server[0] droppedJobsQueue 64
scalar FogNoLB.fog[56].server[0] droppedJobsTimout 0
scalar FogNoLB.fog[56].server[0] droppedJobsSLA 0
scalar FogNoLB.fog[56].server[0] droppedJobsTotal 64
scalar FogNoLB.fog[57].dispatcher localJobs 324019
scalar FogNoLB.fog[57].dispatcher remoteJobs 0
scalar FogNoLB.fog[57].dispatcher probeQueries 0
scalar FogNoLB.fog[57].dispatcher probeAnswers 0
scalar FogNoLB.fog[57].dispatcher droppedJobsSLA 0
scalar FogNoLB.fog[57].dispatcher jobs_class_1 324019
scalar FogNoLB.fog[57].dispatcher localJobs_class_1 324019
scalar FogNoLB.fog[57].server[0] rho 0.50098502635956
scalar FogNoLB.fog[57].server[0] congestionRatio 0
scalar FogNoLB.fog[57].server[0] totalJobs 324019
scalar FogNoLB.fog[57].server[0] droppedJobsQueue 60
scalar FogNoLB.fog[57].server[0] droppedJobsTimout 0
scalar FogNoLB.fog[57].server[0] droppedJobsSLA 0
scalar FogNoLB.fog[57].server[0] droppedJobsTotal 60
scalar FogNoLB.fog[58].dispatcher localJobs 324063
scalar FogNoLB.fog[58].dispatcher remoteJobs 0
scalar FogNoLB.fog[58].dispatcher probeQueries 0
scalar FogNoLB.fog[58].dispatcher probeAnswers 0
scalar FogNoLB.fog[58].dispatcher droppedJobsSLA 0
scalar FogNoLB.fog[58].dispatcher jobs_class_1 324063
scalar FogNoLB.fog[58].dispatcher localJobs_class_1 324063
scalar FogNoLB.fog[58].server[0] rho 0.5010467171669
scalar FogNoLB.fog[58].server[0] congestionRatio 0
scalar FogNoLB.fog[58].server[0] totalJobs 324063
scalar FogNoLB.fog[58].server[0] droppedJobsQueue 32
scalar FogNoLB.fog[58].server[0] droppedJobsTimout 0
scalar FogNoLB.fog[58].server[0] droppedJobsSLA 0
scalar FogNoLB.fog[58].server[0] droppedJobsTotal 32
scalar FogNoLB.fog[59].dispatcher localJobs 323416
scalar FogNoLB.fog[59].dispatcher remoteJobs 0
scalar FogNoLB.fog[59].dispatcher probeQueries 0
scalar FogNoLB.fog[59].dispatcher probeAnswers 0
scalar FogNoLB.fog[59].dispatcher droppedJobsSLA 0
scalar FogNoLB.fog[59].dispatcher jobs_class_1 323416
scalar FogNoLB.fog[59].dispatcher localJobs_class_1 323416
scalar FogNoLB.fog[59].server[0] rho 0.50005424022675
scalar FogNoLB.fog[59].server[0] congestionRatio 0
scalar FogNoLB.fog[59].server[0] totalJobs 323416
scalar FogNoLB.fog[59].server[0] droppedJobsQueue 41
scalar FogNoLB.fog[59].server[0] droppedJobsTimout 0
scalar FogNoLB.fog[59].server[0] droppedJobsSLA 0
scalar FogNoLB.fog[59].server[0] droppedJobsTotal 41
scalar FogNoLB.fog[60].dispatcher localJobs 323809
scalar FogNoLB.fog[60].dispatcher remoteJobs 0
scalar FogNoLB.fog[60].dispatcher probeQueries 0
scalar FogNoLB.fog[60].dispatcher probeAnswers 0
scalar FogNoLB.fog[60].dispatcher droppedJobsSLA 0
scalar FogNoLB.fog[60].dispatcher jobs_class_1 323809
scalar FogNoLB.fog[60].dispatcher localJobs_class_1 323809
scalar FogNoLB.fog[60].server[0] rho 0.5006206035614
scalar FogNoLB.fog[60].server[0] congestionRatio 0
scalar FogNoLB.fog[60].server[0] totalJobs 323809
scalar FogNoLB.fog[60].server[0] droppedJobsQueue 57
scalar FogNoLB.fog[60].server[0] droppedJobsTimout 0
scalar FogNoLB.fog[60].server[0] droppedJobsSLA 0
scalar FogNoLB.fog[60].server[0] droppedJobsTotal 57
scalar FogNoLB.fog[61].dispatcher localJobs 323124
scalar FogNoLB.fog[61].dispatcher remoteJobs 0
scalar FogNoLB.fog[61].dispatcher probeQueries 0
scalar FogNoLB.fog[61].dispatcher probeAnswers 0
scalar FogNoLB.fog[61].dispatcher droppedJobsSLA 0
scalar FogNoLB.fog[61].dispatcher jobs_class_1 323124
scalar FogNoLB.fog[61].dispatcher localJobs_class_1 323124
scalar FogNoLB.fog[61].server[0] rho 0.49958589673042
scalar FogNoLB.fog[61].server[0] congestionRatio 0
scalar FogNoLB.fog[61].server[0] totalJobs 323124
scalar FogNoLB.fog[61].server[0] droppedJobsQueue 44
scalar FogNoLB.fog[61].server[0] droppedJobsTimout 0
scalar FogNoLB.fog[61].server[0] droppedJobsSLA 0
scalar FogNoLB.fog[61].server[0] droppedJobsTotal 44
scalar FogNoLB.fog[62].dispatcher localJobs 323034
scalar FogNoLB.fog[62].dispatcher remoteJobs 0
scalar FogNoLB.fog[62].dispatcher probeQueries 0
scalar FogNoLB.fog[62].dispatcher probeAnswers 0
scalar FogNoLB.fog[62].dispatcher droppedJobsSLA 0
scalar FogNoLB.fog[62].dispatcher jobs_class_1 323034
scalar FogNoLB.fog[62].dispatcher localJobs_class_1 323034
scalar FogNoLB.fog[62].server[0] rho 0.4994652569294
scalar FogNoLB.fog[62].server[0] congestionRatio 0
scalar FogNoLB.fog[62].server[0] totalJobs 323034
scalar FogNoLB.fog[62].server[0] droppedJobsQueue 46
scalar FogNoLB.fog[62].server[0] droppedJobsTimout 0
scalar FogNoLB.fog[62].server[0] droppedJobsSLA 0
scalar FogNoLB.fog[62].server[0] droppedJobsTotal 46
scalar FogNoLB.fog[63].dispatcher localJobs 323270
scalar FogNoLB.fog[63].dispatcher remoteJobs 0
scalar FogNoLB.fog[63].dispatcher probeQueries 0
scalar FogNoLB.fog[63].dispatcher probeAnswers 0
scalar FogNoLB.fog[63].dispatcher droppedJobsSLA 0
scalar FogNoLB.fog[63].dispatcher jobs_class_1 323270
scalar FogNoLB.fog[63].dispatcher localJobs_class_1 323270
scalar FogNoLB.fog[63].server[0] rho 0.499755859375
scalar FogNoLB.fog[63].server[0] congestionRatio 0
scalar FogNoLB.fog[63].server[0] totalJobs 323270
scalar FogNoLB.fog[63].server[0] droppedJobsQueue 67
scalar FogNoLB.fog[63].server[0] droppedJobsTimout 0
scalar FogNoLB.fog[63].server[0] droppedJobsSLA 0
scalar FogNoLB.fog[63].server[0] droppedJobsTotal 67
scalar FogNoLB.fog[64].dispatcher localJobs 323187
scalar FogNoLB.fog[64].dispatcher remoteJobs 0
scalar FogNoLB.fog[64].dispatcher probeQueries 0
scalar FogNoLB.fog[64].dispatcher probeAnswers 0
scalar FogNoLB.fog[64].dispatcher droppedJobsSLA 0
scalar FogNoLB.fog[64].dispatcher jobs_class_1 323187
scalar FogNoLB.fog[64].dispatcher localJobs_class_1 323187
scalar FogNoLB.fog[64].server[0] rho 0.49966049194336
scalar FogNoLB.fog[64].server[0] congestionRatio 0
scalar FogNoLB.fog[64].server[0] totalJobs 323187
scalar FogNoLB.fog[64].server[0] droppedJobsQueue 50
scalar FogNoLB.fog[64].server[0] droppedJobsTimout 0
scalar FogNoLB.fog[64].server[0] droppedJobsSLA 0
scalar FogNoLB.fog[64].server[0] droppedJobsTotal 50
scalar FogNoLB.fog[65].dispatcher localJobs 323120
scalar FogNoLB.fog[65].dispatcher remoteJobs 0
scalar FogNoLB.fog[65].dispatcher probeQueries 0
scalar FogNoLB.fog[65].dispatcher probeAnswers 0
scalar FogNoLB.fog[65].dispatcher droppedJobsSLA 0
scalar FogNoLB.fog[65].dispatcher jobs_class_1 323120
scalar FogNoLB.fog[65].dispatcher localJobs_class_1 323120
scalar FogNoLB.fog[65].server[0] rho 0.49953016638756
scalar FogNoLB.fog[65].server[0] congestionRatio 0
scalar FogNoLB.fog[65].server[0] totalJobs 323120
scalar FogNoLB.fog[65].server[0] droppedJobsQueue 63
scalar FogNoLB.fog[65].server[0] droppedJobsTimout 0
scalar FogNoLB.fog[65].server[0] droppedJobsSLA 0
scalar FogNoLB.fog[65].server[0] droppedJobsTotal 63
scalar FogNoLB.fog[66].dispatcher localJobs 322598
scalar FogNoLB.fog[66].dispatcher remoteJobs 0
scalar FogNoLB.fog[66].dispatcher probeQueries 0
scalar FogNoLB.fog[66].dispatcher probeAnswers 0
scalar FogNoLB.fog[66].dispatcher droppedJobsSLA 0
scalar FogNoLB.fog[66].dispatcher jobs_class_1 322598
scalar FogNoLB.fog[66].dispatcher localJobs_class_1 322598
scalar FogNoLB.fog[66].server[0] rho 0.49874603748322
scalar FogNoLB.fog[66].server[0] congestionRatio 0
scalar FogNoLB.fog[66].server[0] totalJobs 322598
scalar FogNoLB.fog[66].server[0] droppedJobsQueue 65
scalar FogNoLB.fog[66].server[0] droppedJobsTimout 0
scalar FogNoLB.fog[66].server[0] droppedJobsSLA 0
scalar FogNoLB.fog[66].server[0] droppedJobsTotal 65
scalar FogNoLB.fog[67].dispatcher localJobs 322963
scalar FogNoLB.fog[67].dispatcher remoteJobs 0
scalar FogNoLB.fog[67].dispatcher probeQueries 0
scalar FogNoLB.fog[67].dispatcher probeAnswers 0
scalar FogNoLB.fog[67].dispatcher droppedJobsSLA 0
scalar FogNoLB.fog[67].dispatcher jobs_class_1 322963
scalar FogNoLB.fog[67].dispatcher localJobs_class_1 322963
scalar FogNoLB.fog[67].server[0] rho 0.49928984045982
scalar FogNoLB.fog[67].server[0] congestionRatio 0
scalar FogNoLB.fog[67].server[0] totalJobs 322963
scalar FogNoLB.fog[67].server[0] droppedJobsQueue 46
scalar FogNoLB.fog[67].server[0] droppedJobsTimout 0
scalar FogNoLB.fog[67].server[0] droppedJobsSLA 0
scalar FogNoLB.fog[67].server[0] droppedJobsTotal 46
scalar FogNoLB.fog[68].dispatcher localJobs 323520
scalar FogNoLB.fog[68].dispatcher remoteJobs 0
scalar FogNoLB.fog[68].dispatcher probeQueries 0
scalar FogNoLB.fog[68].dispatcher probeAnswers 0
scalar FogNoLB.fog[68].dispatcher droppedJobsSLA 0
scalar FogNoLB.fog[68].dispatcher jobs_class_1 323520
scalar FogNoLB.fog[68].dispatcher localJobs_class_1 323520
scalar FogNoLB.fog[68].server[0] rho 0.50017422437668
scalar FogNoLB.fog[68].server[0] congestionRatio 0
scalar FogNoLB.fog[68].server[0] totalJobs 323520
scalar FogNoLB.fog[68].server[0] droppedJobsQueue 59
scalar FogNoLB.fog[68].server[0] droppedJobsTimout 0
scalar FogNoLB.fog[68].server[0] droppedJobsSLA 0
scalar FogNoLB.fog[68].server[0] droppedJobsTotal 59
scalar FogNoLB.fog[69].dispatcher localJobs 324006
scalar FogNoLB.fog[69].dispatcher remoteJobs 0
scalar FogNoLB.fog[69].dispatcher probeQueries 0
scalar FogNoLB.fog[69].dispatcher probeAnswers 0
scalar FogNoLB.fog[69].dispatcher droppedJobsSLA 0
scalar FogNoLB.fog[69].dispatcher jobs_class_1 324006
scalar FogNoLB.fog[69].dispatcher localJobs_class_1 324006
scalar FogNoLB.fog[69].server[0] rho 0.50093311071396
scalar FogNoLB.fog[69].server[0] congestionRatio 0
scalar FogNoLB.fog[69].server[0] totalJobs 324006
scalar FogNoLB.fog[69].server[0] droppedJobsQueue 44
scalar FogNoLB.fog[69].server[0] droppedJobsTimout 0
scalar FogNoLB.fog[69].server[0] droppedJobsSLA 0
scalar FogNoLB.fog[69].server[0] droppedJobsTotal 44
scalar FogNoLB.fog[70].dispatcher localJobs 323574
scalar FogNoLB.fog[70].dispatcher remoteJobs 0
scalar FogNoLB.fog[70].dispatcher probeQueries 0
scalar FogNoLB.fog[70].dispatcher probeAnswers 0
scalar FogNoLB.fog[70].dispatcher droppedJobsSLA 0
scalar FogNoLB.fog[70].dispatcher jobs_class_1 323574
scalar FogNoLB.fog[70].dispatcher localJobs_class_1 323574
scalar FogNoLB.fog[70].server[0] rho 0.50023239850998
scalar FogNoLB.fog[70].server[0] congestionRatio 0
scalar FogNoLB.fog[70].server[0] totalJobs 323574
scalar FogNoLB.fog[70].server[0] droppedJobsQueue 50
scalar FogNoLB.fog[70].server[0] droppedJobsTimout 0
scalar FogNoLB.fog[70].server[0] droppedJobsSLA 0
scalar FogNoLB.fog[70].server[0] droppedJobsTotal 50
scalar FogNoLB.fog[71].dispatcher localJobs 323073
scalar FogNoLB.fog[71].dispatcher remoteJobs 0
scalar FogNoLB.fog[71].dispatcher probeQueries 0
scalar FogNoLB.fog[71].dispatcher probeAnswers 0
scalar FogNoLB.fog[71].dispatcher droppedJobsSLA 0
scalar FogNoLB.fog[71].dispatcher jobs_class_1 323073
scalar FogNoLB.fog[71].dispatcher localJobs_class_1 323073
scalar FogNoLB.fog[71].server[0] rho 0.49945592880249
scalar FogNoLB.fog[71].server[0] congestionRatio 0
scalar FogNoLB.fog[71].server[0] totalJobs 323073
scalar FogNoLB.fog[71].server[0] droppedJobsQueue 59
scalar FogNoLB.fog[71].server[0] droppedJobsTimout 0
scalar FogNoLB.fog[71].server[0] droppedJobsSLA 0
scalar FogNoLB.fog[71].server[0] droppedJobsTotal 59
scalar FogNoLB.fog[72].dispatcher localJobs 323339
scalar FogNoLB.fog[72].dispatcher remoteJobs 0
scalar FogNoLB.fog[72].dispatcher probeQueries 0
scalar FogNoLB.fog[72].dispatcher probeAnswers 0
scalar FogNoLB.fog[72].dispatcher droppedJobsSLA 0
scalar FogNoLB.fog[72].dispatcher jobs_class_1 323339
scalar FogNoLB.fog[72].dispatcher localJobs_class_1 323339
scalar FogNoLB.fog[72].server[0] rho 0.49988040328026
scalar FogNoLB.fog[72].server[0] congestionRatio 0
scalar FogNoLB.fog[72].server[0] totalJobs 323339
scalar FogNoLB.fog[72].server[0] droppedJobsQueue 67
scalar FogNoLB.fog[72].server[0] droppedJobsTimout 0
scalar FogNoLB.fog[72].server[0] droppedJobsSLA 0
scalar FogNoLB.fog[72].server[0] droppedJobsTotal 67
scalar FogNoLB.fog[73].dispatcher localJobs 323566
scalar FogNoLB.fog[73].dispatcher remoteJobs 0
scalar FogNoLB.fog[73].dispatcher probeQueries 0
scalar FogNoLB.fog[73].dispatcher probeAnswers 0
scalar FogNoLB.fog[73].dispatcher droppedJobsSLA 0
scalar FogNoLB.fog[73].dispatcher jobs_class_1 323566
scalar FogNoLB.fog[73].dispatcher localJobs_class_1 323566
scalar FogNoLB.fog[73].server[0] rho 0.50026309490204
scalar FogNoLB.fog[73].server[0] congestionRatio 0
scalar FogNoLB.fog[73].server[0] totalJobs 323566
scalar FogNoLB.fog[73].server[0] droppedJobsQueue 53
scalar FogNoLB.fog[73].server[0] droppedJobsTimout 0
scalar FogNoLB.fog[73].server[0] droppedJobsSLA 0
scalar FogNoLB.fog[73].server[0] droppedJobsTotal 53
scalar FogNoLB.fog[74].dispatcher localJobs 323481
scalar FogNoLB.fog[74].dispatcher remoteJobs 0
scalar FogNoLB.fog[74].dispatcher probeQueries 0
scalar FogNoLB.fog[74].dispatcher probeAnswers 0
scalar FogNoLB.fog[74].dispatcher droppedJobsSLA 0
scalar FogNoLB.fog[74].dispatcher jobs_class_1 323481
scalar FogNoLB.fog[74].dispatcher localJobs_class_1 323481
scalar FogNoLB.fog[74].server[0] rho 0.50013041496277
scalar FogNoLB.fog[74].server[0] congestionRatio 0
scalar FogNoLB.fog[74].server[0] totalJobs 323481
scalar FogNoLB.fog[74].server[0] droppedJobsQueue 66
scalar FogNoLB.fog[74].server[0] droppedJobsTimout 0
scalar FogNoLB.fog[74].server[0] droppedJobsSLA 0
scalar FogNoLB.fog[74].server[0] droppedJobsTotal 66
scalar FogNoLB.fog[75].dispatcher localJobs 324208
scalar FogNoLB.fog[75].dispatcher remoteJobs 0
scalar FogNoLB.fog[75].dispatcher probeQueries 0
scalar FogNoLB.fog[75].dispatcher probeAnswers 0
scalar FogNoLB.fog[75].dispatcher droppedJobsSLA 0
scalar FogNoLB.fog[75].dispatcher jobs_class_1 324208
scalar FogNoLB.fog[75].dispatcher localJobs_class_1 324208
scalar FogNoLB.fog[75].server[0] rho 0.50117552280426
scalar FogNoLB.fog[75].server[0] congestionRatio 0
scalar FogNoLB.fog[75].server[0] totalJobs 324208
scalar FogNoLB.fog[75].server[0] droppedJobsQueue 70
scalar FogNoLB.fog[75].server[0] droppedJobsTimout 0
scalar FogNoLB.fog[75].server[0] droppedJobsSLA 0
scalar FogNoLB.fog[75].server[0] droppedJobsTotal 70
scalar FogNoLB.fog[76].dispatcher localJobs 323779
scalar FogNoLB.fog[76].dispatcher remoteJobs 0
scalar FogNoLB.fog[76].dispatcher probeQueries 0
scalar FogNoLB.fog[76].dispatcher probeAnswers 0
scalar FogNoLB.fog[76].dispatcher droppedJobsSLA 0
scalar FogNoLB.fog[76].dispatcher jobs_class_1 323779
scalar FogNoLB.fog[76].dispatcher localJobs_class_1 323779
scalar FogNoLB.fog[76].server[0] rho 0.50059759616852
scalar FogNoLB.fog[76].server[0] congestionRatio 0
scalar FogNoLB.fog[76].server[0] totalJobs 323779
scalar FogNoLB.fog[76].server[0] droppedJobsQueue 49
scalar FogNoLB.fog[76].server[0] droppedJobsTimout 0
scalar FogNoLB.fog[76].server[0] droppedJobsSLA 0
scalar FogNoLB.fog[76].server[0] droppedJobsTotal 49
scalar FogNoLB.fog[77].dispatcher localJobs 322210
scalar FogNoLB.fog[77].dispatcher remoteJobs 0
scalar FogNoLB.fog[77].dispatcher probeQueries 0
scalar FogNoLB.fog[77].dispatcher probeAnswers 0
scalar FogNoLB.fog[77].dispatcher droppedJobsSLA 0
scalar FogNoLB.fog[77].dispatcher jobs_class_1 322210
scalar FogNoLB.fog[77].dispatcher localJobs_class_1 322210
scalar FogNoLB.fog[77].server[0] rho 0.49814346432686
scalar FogNoLB.fog[77].server[0] congestionRatio 0
scalar FogNoLB.fog[77].server[0] totalJobs 322210
scalar FogNoLB.fog[77].server[0] droppedJobsQueue 39
scalar FogNoLB.fog[77].server[0] droppedJobsTimout 0
scalar FogNoLB.fog[77].server[0] droppedJobsSLA 0
scalar FogNoLB.fog[77].server[0] droppedJobsTotal 39
scalar FogNoLB.fog[78].dispatcher localJobs 323267
scalar FogNoLB.fog[78].dispatcher remoteJobs 0
scalar FogNoLB.fog[78].dispatcher probeQueries 0
scalar FogNoLB.fog[78].dispatcher probeAnswers 0
scalar FogNoLB.fog[78].dispatcher droppedJobsSLA 0
scalar FogNoLB.fog[78].dispatcher jobs_class_1 323267
scalar FogNoLB.fog[78].dispatcher localJobs_class_1 323267
scalar FogNoLB.fog[78].server[0] rho 0.49980139732361
scalar FogNoLB.fog[78].server[0] congestionRatio 0
scalar FogNoLB.fog[78].server[0] totalJobs 323267
scalar FogNoLB.fog[78].server[0] droppedJobsQueue 47
scalar FogNoLB.fog[78].server[0] droppedJobsTimout 0
scalar FogNoLB.fog[78].server[0] droppedJobsSLA 0
scalar FogNoLB.fog[78].server[0] droppedJobsTotal 47
scalar FogNoLB.fog[79].dispatcher localJobs 323175
scalar FogNoLB.fog[79].dispatcher remoteJobs 0
scalar FogNoLB.fog[79].dispatcher probeQueries 0
scalar FogNoLB.fog[79].dispatcher probeAnswers 0
scalar FogNoLB.fog[79].dispatcher droppedJobsSLA 0
scalar FogNoLB.fog[79].dispatcher jobs_class_1 323175
scalar FogNoLB.fog[79].dispatcher localJobs_class_1 323175
scalar FogNoLB.fog[79].server[0] rho 0.4996375143528
scalar FogNoLB.fog[79].server[0] congestionRatio 0
scalar FogNoLB.fog[79].server[0] totalJobs 323175
scalar FogNoLB.fog[79].server[0] droppedJobsQueue 51
scalar FogNoLB.fog[79].server[0] droppedJobsTimout 0
scalar FogNoLB.fog[79].server[0] droppedJobsSLA 0
scalar FogNoLB.fog[79].server[0] droppedJobsTotal 51
scalar FogNoLB.fog[80].dispatcher localJobs 324179
scalar FogNoLB.fog[80].dispatcher remoteJobs 0
scalar FogNoLB.fog[80].dispatcher probeQueries 0
scalar FogNoLB.fog[80].dispatcher probeAnswers 0
scalar FogNoLB.fog[80].dispatcher droppedJobsSLA 0
scalar FogNoLB.fog[80].dispatcher jobs_class_1 324179
scalar FogNoLB.fog[80].dispatcher localJobs_class_1 324179
scalar FogNoLB.fog[80].server[0] rho 0.50118219852448
scalar FogNoLB.fog[80].server[0] congestionRatio 0
scalar FogNoLB.fog[80].server[0] totalJobs 324179
scalar FogNoLB.fog[80].server[0] droppedJobsQueue 59
scalar FogNoLB.fog[80].server[0] droppedJobsTimout 0
scalar FogNoLB.fog[80].server[0] droppedJobsSLA 0
scalar FogNoLB.fog[80].server[0] droppedJobsTotal 59
scalar FogNoLB.fog[81].dispatcher localJobs 323956
scalar FogNoLB.fog[81].dispatcher remoteJobs 0
scalar FogNoLB.fog[81].dispatcher probeQueries 0
scalar FogNoLB.fog[81].dispatcher probeAnswers 0
scalar FogNoLB.fog[81].dispatcher droppedJobsSLA 0
scalar FogNoLB.fog[81].dispatcher jobs_class_1 323956
scalar FogNoLB.fog[81].dispatcher localJobs_class_1 323956
scalar FogNoLB.fog[81].server[0] rho 0.50081324577332
scalar FogNoLB.fog[81].server[0] congestionRatio 0
scalar FogNoLB.fog[81].server[0] totalJobs 323956
scalar FogNoLB.fog[81].server[0] droppedJobsQueue 77
scalar FogNoLB.fog[81].server[0] droppedJobsTimout 0
scalar FogNoLB.fog[81].server[0] droppedJobsSLA 0
scalar FogNoLB.fog[81].server[0] droppedJobsTotal 77
scalar FogNoLB.fog[82].dispatcher localJobs 322947
scalar FogNoLB.fog[82].dispatcher remoteJobs 0
scalar FogNoLB.fog[82].dispatcher probeQueries 0
scalar FogNoLB.fog[82].dispatcher probeAnswers 0
scalar FogNoLB.fog[82].dispatcher droppedJobsSLA 0
scalar FogNoLB.fog[82].dispatcher jobs_class_1 322947
scalar FogNoLB.fog[82].dispatcher localJobs_class_1 322947
scalar FogNoLB.fog[82].server[0] rho 0.49927520751953
scalar FogNoLB.fog[82].server[0] congestionRatio 0
scalar FogNoLB.fog[82].server[0] totalJobs 322947
scalar FogNoLB.fog[82].server[0] droppedJobsQueue 62
scalar FogNoLB.fog[82].server[0] droppedJobsTimout 0
scalar FogNoLB.fog[82].server[0] droppedJobsSLA 0
scalar FogNoLB.fog[82].server[0] droppedJobsTotal 62
scalar FogNoLB.fog[83].dispatcher localJobs 323800
scalar FogNoLB.fog[83].dispatcher remoteJobs 0
scalar FogNoLB.fog[83].dispatcher probeQueries 0
scalar FogNoLB.fog[83].dispatcher probeAnswers 0
scalar FogNoLB.fog[83].dispatcher droppedJobsSLA 0
scalar FogNoLB.fog[83].dispatcher jobs_class_1 323800
scalar FogNoLB.fog[83].dispatcher localJobs_class_1 323800
scalar FogNoLB.fog[83].server[0] rho 0.50059217214584
scalar FogNoLB.fog[83].server[0] congestionRatio 0
scalar FogNoLB.fog[83].server[0] totalJobs 323800
scalar FogNoLB.fog[83].server[0] droppedJobsQueue 47
scalar FogNoLB.fog[83].server[0] droppedJobsTimout 0
scalar FogNoLB.fog[83].server[0] droppedJobsSLA 0
scalar FogNoLB.fog[83].server[0] droppedJobsTotal 47
scalar FogNoLB.fog[84].dispatcher localJobs 323836
scalar FogNoLB.fog[84].dispatcher remoteJobs 0
scalar FogNoLB.fog[84].dispatcher probeQueries 0
scalar FogNoLB.fog[84].dispatcher probeAnswers 0
scalar FogNoLB.fog[84].dispatcher droppedJobsSLA 0
scalar FogNoLB.fog[84].dispatcher jobs_class_1 323836
scalar FogNoLB.fog[84].dispatcher localJobs_class_1 323836
scalar FogNoLB.fog[84].server[0] rho 0.50064969062805
scalar FogNoLB.fog[84].server[0] congestionRatio 0
scalar FogNoLB.fog[84].server[0] totalJobs 323836
scalar FogNoLB.fog[84].server[0] droppedJobsQueue 52
scalar FogNoLB.fog[84].server[0] droppedJobsTimout 0
scalar FogNoLB.fog[84].server[0] droppedJobsSLA 0
scalar FogNoLB.fog[84].server[0] droppedJobsTotal 52
scalar FogNoLB.fog[85].dispatcher localJobs 322695
scalar FogNoLB.fog[85].dispatcher remoteJobs 0
scalar FogNoLB.fog[85].dispatcher probeQueries 0
scalar FogNoLB.fog[85].dispatcher probeAnswers 0
scalar FogNoLB.fog[85].dispatcher droppedJobsSLA 0
scalar FogNoLB.fog[85].dispatcher jobs_class_1 322695
scalar FogNoLB.fog[85].dispatcher localJobs_class_1 322695
scalar FogNoLB.fog[85].server[0] rho 0.49889907240868
scalar FogNoLB.fog[85].server[0] congestionRatio 0
scalar FogNoLB.fog[85].server[0] totalJobs 322695
scalar FogNoLB.fog[85].server[0] droppedJobsQueue 54
scalar FogNoLB.fog[85].server[0] droppedJobsTimout 0
scalar FogNoLB.fog[85].server[0] droppedJobsSLA 0
scalar FogNoLB.fog[85].server[0] droppedJobsTotal 54
scalar FogNoLB.fog[86].dispatcher localJobs 323831
scalar FogNoLB.fog[86].dispatcher remoteJobs 0
scalar FogNoLB.fog[86].dispatcher probeQueries 0
scalar FogNoLB.fog[86].dispatcher probeAnswers 0
scalar FogNoLB.fog[86].dispatcher droppedJobsSLA 0
scalar FogNoLB.fog[86].dispatcher jobs_class_1 323831
scalar FogNoLB.fog[86].dispatcher localJobs_class_1 323831
scalar FogNoLB.fog[86].server[0] rho 0.50065785646439
scalar FogNoLB.fog[86].server[0] congestionRatio 0
scalar FogNoLB.fog[86].server[0] totalJobs 323831
scalar FogNoLB.fog[86].server[0] droppedJobsQueue 55
scalar FogNoLB.fog[86].server[0] droppedJobsTimout 0
scalar FogNoLB.fog[86].server[0] droppedJobsSLA 0
scalar FogNoLB.fog[86].server[0] droppedJobsTotal 55
scalar FogNoLB.fog[87].dispatcher localJobs 322955
scalar FogNoLB.fog[87].dispatcher remoteJobs 0
scalar FogNoLB.fog[87].dispatcher probeQueries 0
scalar FogNoLB.fog[87].dispatcher probeAnswers 0
scalar FogNoLB.fog[87].dispatcher droppedJobsSLA 0
scalar FogNoLB.fog[87].dispatcher jobs_class_1 322955
scalar FogNoLB.fog[87].dispatcher localJobs_class_1 322955
scalar FogNoLB.fog[87].server[0] rho 0.49927404522896
scalar FogNoLB.fog[87].server[0] congestionRatio 0
scalar FogNoLB.fog[87].server[0] totalJobs 322955
scalar FogNoLB.fog[87].server[0] droppedJobsQueue 66
scalar FogNoLB.fog[87].server[0] droppedJobsTimout 0
scalar FogNoLB.fog[87].server[0] droppedJobsSLA 0
scalar FogNoLB.fog[87].server[0] droppedJobsTotal 66
scalar FogNoLB.fog[88].dispatcher localJobs 323543
scalar FogNoLB.fog[88].dispatcher remoteJobs 0
scalar FogNoLB.fog[88].dispatcher probeQueries 0
scalar FogNoLB.fog[88].dispatcher probeAnswers 0
scalar FogNoLB.fog[88].dispatcher droppedJobsSLA 0
scalar FogNoLB.fog[88].dispatcher jobs_class_1 323543
scalar FogNoLB.fog[88].dispatcher localJobs_class_1 323543
scalar FogNoLB.fog[88].server[0] rho 0.50020670890808
scalar FogNoLB.fog[88].server[0] congestionRatio 0
scalar FogNoLB.fog[88].server[0] totalJobs 323543
scalar FogNoLB.fog[88].server[0] droppedJobsQueue 51
scalar FogNoLB.fog[88].server[0] droppedJobsTimout 0
scalar FogNoLB.fog[88].server[0] droppedJobsSLA 0
scalar FogNoLB.fog[88].server[0] droppedJobsTotal 51
scalar FogNoLB.fog[89].dispatcher localJobs 324081
scalar FogNoLB.fog[89].dispatcher remoteJobs 0
scalar FogNoLB.fog[89].dispatcher probeQueries 0
scalar FogNoLB.fog[89].dispatcher probeAnswers 0
scalar FogNoLB.fog[89].dispatcher droppedJobsSLA 0
scalar FogNoLB.fog[89].dispatcher jobs_class_1 324081
scalar FogNoLB.fog[89].dispatcher localJobs_class_1 324081
scalar FogNoLB.fog[89].server[0] rho 0.50101643800735
scalar FogNoLB.fog[89].server[0] congestionRatio 0
scalar FogNoLB.fog[89].server[0] totalJobs 324081
scalar FogNoLB.fog[89].server[0] droppedJobsQueue 58
scalar FogNoLB.fog[89].server[0] droppedJobsTimout 0
scalar FogNoLB.fog[89].server[0] droppedJobsSLA 0
scalar FogNoLB.fog[89].server[0] droppedJobsTotal 58
scalar FogNoLB.fog[90].dispatcher localJobs 323050
scalar FogNoLB.fog[90].dispatcher remoteJobs 0
scalar FogNoLB.fog[90].dispatcher probeQueries 0
scalar FogNoLB.fog[90].dispatcher probeAnswers 0
scalar FogNoLB.fog[90].dispatcher droppedJobsSLA 0
scalar FogNoLB.fog[90].dispatcher jobs_class_1 323050
scalar FogNoLB.fog[90].dispatcher localJobs_class_1 323050
scalar FogNoLB.fog[90].server[0] rho 0.49943593144417
scalar FogNoLB.fog[90].server[0] congestionRatio 0
scalar FogNoLB.fog[90].server[0] totalJobs 323050
scalar FogNoLB.fog[90].server[0] droppedJobsQueue 55
scalar FogNoLB.fog[90].server[0] droppedJobsTimout 0
scalar FogNoLB.fog[90].server[0] droppedJobsSLA 0
scalar FogNoLB.fog[90].server[0] droppedJobsTotal 55
scalar FogNoLB.fog[91].dispatcher localJobs 323880
scalar FogNoLB.fog[91].dispatcher remoteJobs 0
scalar FogNoLB.fog[91].dispatcher probeQueries 0
scalar FogNoLB.fog[91].dispatcher probeAnswers 0
scalar FogNoLB.fog[91].dispatcher droppedJobsSLA 0
scalar FogNoLB.fog[91].dispatcher jobs_class_1 323880
scalar FogNoLB.fog[91].dispatcher localJobs_class_1 323880
scalar FogNoLB.fog[91].server[0] rho 0.50073260068893
scalar FogNoLB.fog[91].server[0] congestionRatio 0
scalar FogNoLB.fog[91].server[0] totalJobs 323880
scalar FogNoLB.fog[91].server[0] droppedJobsQueue 57
scalar FogNoLB.fog[91].server[0] droppedJobsTimout 0
scalar FogNoLB.fog[91].server[0] droppedJobsSLA 0
scalar FogNoLB.fog[91].server[0] droppedJobsTotal 57
scalar FogNoLB.fog[92].dispatcher localJobs 323033
scalar FogNoLB.fog[92].dispatcher remoteJobs 0
scalar FogNoLB.fog[92].dispatcher probeQueries 0
scalar FogNoLB.fog[92].dispatcher probeAnswers 0
scalar FogNoLB.fog[92].dispatcher droppedJobsSLA 0
scalar FogNoLB.fog[92].dispatcher jobs_class_1 323033
scalar FogNoLB.fog[92].dispatcher localJobs_class_1 323033
scalar FogNoLB.fog[92].server[0] rho 0.499397367239
scalar FogNoLB.fog[92].server[0] congestionRatio 0
scalar FogNoLB.fog[92].server[0] totalJobs 323033
scalar FogNoLB.fog[92].server[0] droppedJobsQueue 71
scalar FogNoLB.fog[92].server[0] droppedJobsTimout 0
scalar FogNoLB.fog[92].server[0] droppedJobsSLA 0
scalar FogNoLB.fog[92].server[0] droppedJobsTotal 71
scalar FogNoLB.fog[93].dispatcher localJobs 323758
scalar FogNoLB.fog[93].dispatcher remoteJobs 0
scalar FogNoLB.fog[93].dispatcher probeQueries 0
scalar FogNoLB.fog[93].dispatcher probeAnswers 0
scalar FogNoLB.fog[93].dispatcher droppedJobsSLA 0
scalar FogNoLB.fog[93].dispatcher jobs_class_1 323758
scalar FogNoLB.fog[93].dispatcher localJobs_class_1 323758
scalar FogNoLB.fog[93].server[0] rho 0.5005242228508
scalar FogNoLB.fog[93].server[0] congestionRatio 0
scalar FogNoLB.fog[93].server[0] totalJobs 323758
scalar FogNoLB.fog[93].server[0] droppedJobsQueue 63
scalar FogNoLB.fog[93].server[0] droppedJobsTimout 0
scalar FogNoLB.fog[93].server[0] droppedJobsSLA 0
scalar FogNoLB.fog[93].server[0] droppedJobsTotal 63
scalar FogNoLB.fog[94].dispatcher localJobs 323621
scalar FogNoLB.fog[94].dispatcher remoteJobs 0
scalar FogNoLB.fog[94].dispatcher probeQueries 0
scalar FogNoLB.fog[94].dispatcher probeAnswers 0
scalar FogNoLB.fog[94].dispatcher droppedJobsSLA 0
scalar FogNoLB.fog[94].dispatcher jobs_class_1 323621
scalar FogNoLB.fog[94].dispatcher localJobs_class_1 323621
scalar FogNoLB.fog[94].server[0] rho 0.5003719329834
scalar FogNoLB.fog[94].server[0] congestionRatio 0
scalar FogNoLB.fog[94].server[0] totalJobs 323621
scalar FogNoLB.fog[94].server[0] droppedJobsQueue 39
scalar FogNoLB.fog[94].server[0] droppedJobsTimout 0
scalar FogNoLB.fog[94].server[0] droppedJobsSLA 0
scalar FogNoLB.fog[94].server[0] droppedJobsTotal 39
scalar FogNoLB.fog[95].dispatcher localJobs 323532
scalar FogNoLB.fog[95].dispatcher remoteJobs 0
scalar FogNoLB.fog[95].dispatcher probeQueries 0
scalar FogNoLB.fog[95].dispatcher probeAnswers 0
scalar FogNoLB.fog[95].dispatcher droppedJobsSLA 0
scalar FogNoLB.fog[95].dispatcher jobs_class_1 323532
scalar FogNoLB.fog[95].dispatcher localJobs_class_1 323532
scalar FogNoLB.fog[95].server[0] rho 0.5001620054245
scalar FogNoLB.fog[95].server[0] congestionRatio 0
scalar FogNoLB.fog[95].server[0] totalJobs 323532
scalar FogNoLB.fog[95].server[0] droppedJobsQueue 64
scalar FogNoLB.fog[95].server[0] droppedJobsTimout 0
scalar FogNoLB.fog[95].server[0] droppedJobsSLA 0
scalar FogNoLB.fog[95].server[0] droppedJobsTotal 64
scalar FogNoLB.fog[96].dispatcher localJobs 323684
scalar FogNoLB.fog[96].dispatcher remoteJobs 0
scalar FogNoLB.fog[96].dispatcher probeQueries 0
scalar FogNoLB.fog[96].dispatcher probeAnswers 0
scalar FogNoLB.fog[96].dispatcher droppedJobsSLA 0
scalar FogNoLB.fog[96].dispatcher jobs_class_1 323684
scalar FogNoLB.fog[96].dispatcher localJobs_class_1 323684
scalar FogNoLB.fog[96].server[0] rho 0.50040757656097
scalar FogNoLB.fog[96].server[0] congestionRatio 0
scalar FogNoLB.fog[96].server[0] totalJobs 323684
scalar FogNoLB.fog[96].server[0] droppedJobsQueue 56
scalar FogNoLB.fog[96].server[0] droppedJobsTimout 0
scalar FogNoLB.fog[96].server[0] droppedJobsSLA 0
scalar FogNoLB.fog[96].server[0] droppedJobsTotal 56
scalar FogNoLB.fog[97].dispatcher localJobs 323033
scalar FogNoLB.fog[97].dispatcher remoteJobs 0
scalar FogNoLB.fog[97].dispatcher probeQueries 0
scalar FogNoLB.fog[97].dispatcher probeAnswers 0
scalar FogNoLB.fog[97].dispatcher droppedJobsSLA 0
scalar FogNoLB.fog[97].dispatcher jobs_class_1 323033
scalar FogNoLB.fog[97].dispatcher localJobs_class_1 323033
scalar FogNoLB.fog[97].server[0] rho 0.499407351017
scalar FogNoLB.fog[97].server[0] congestionRatio 0
scalar FogNoLB.fog[97].server[0] totalJobs 323033
scalar FogNoLB.fog[97].server[0] droppedJobsQueue 80
scalar FogNoLB.fog[97].server[0] droppedJobsTimout 0
scalar FogNoLB.fog[97].server[0] droppedJobsSLA 0
scalar FogNoLB.fog[97].server[0] droppedJobsTotal 80
scalar FogNoLB.fog[98].dispatcher localJobs 322223
scalar FogNoLB.fog[98].dispatcher remoteJobs 0
scalar FogNoLB.fog[98].dispatcher probeQueries 0
scalar FogNoLB.fog[98].dispatcher probeAnswers 0
scalar FogNoLB.fog[98].dispatcher droppedJobsSLA 0
scalar FogNoLB.fog[98].dispatcher jobs_class_1 322223
scalar FogNoLB.fog[98].dispatcher localJobs_class_1 322223
scalar FogNoLB.fog[98].server[0] rho 0.49818617105484
scalar FogNoLB.fog[98].server[0] congestionRatio 0
scalar FogNoLB.fog[98].server[0] totalJobs 322223
scalar FogNoLB.fog[98].server[0] droppedJobsQueue 55
scalar FogNoLB.fog[98].server[0] droppedJobsTimout 0
scalar FogNoLB.fog[98].server[0] droppedJobsSLA 0
scalar FogNoLB.fog[98].server[0] droppedJobsTotal 55
scalar FogNoLB.fog[99].dispatcher localJobs 323679
scalar FogNoLB.fog[99].dispatcher remoteJobs 0
scalar FogNoLB.fog[99].dispatcher probeQueries 0
scalar FogNoLB.fog[99].dispatcher probeAnswers 0
scalar FogNoLB.fog[99].dispatcher droppedJobsSLA 0
scalar FogNoLB.fog[99].dispatcher jobs_class_1 323679
scalar FogNoLB.fog[99].dispatcher localJobs_class_1 323679
scalar FogNoLB.fog[99].server[0] rho 0.50040024518967
scalar FogNoLB.fog[99].server[0] congestionRatio 0
scalar FogNoLB.fog[99].server[0] totalJobs 323679
scalar FogNoLB.fog[99].server[0] droppedJobsQueue 62
scalar FogNoLB.fog[99].server[0] droppedJobsTimout 0
scalar FogNoLB.fog[99].server[0] droppedJobsSLA 0
scalar FogNoLB.fog[99].server[0] droppedJobsTotal 62
scalar FogNoLB.sink avg_responseTime_1 0.025019845582005
scalar FogNoLB.sink p90_responseTime_1 0.014825980871
scalar FogNoLB.sink med_responseTime_1 0.014825980871
scalar FogNoLB.sink avg_delayTime_1 0
scalar FogNoLB.sink p90_delayTime_1 0
scalar FogNoLB.sink med_delayTime_1 0
scalar FogNoLB.sink avg_queuingTime_1 0.0083198997382396
scalar FogNoLB.sink p90_queuingTime_1 0
scalar FogNoLB.sink med_queuingTime_1 0
scalar FogNoLB.sink avg_serviceTime_1 0.016699945843774
scalar FogNoLB.sink p90_serviceTime_1 0.014645404052
scalar FogNoLB.sink med_serviceTime_1 0.014645404052
scalar FogNoLB.sink avg_balancerTime_1 0
scalar FogNoLB.sink p90_balancerTime_1 0
scalar FogNoLB.sink med_balancerTime_1 0
scalar FogNoLB.sink avg_balancerCount_1 1
scalar FogNoLB.sink p90_balancerCount_1 1
scalar FogNoLB.sink med_balancerCount_1 1

