version 2
run Fog-mul_001-rho_08-thr_11-4-20190711-19:29:46-53192
attr configname Fog-mul_001-rho_08-thr_11
attr datetime 20190711-19:29:46
attr experiment Fog-mul_001-rho_08-thr_11
attr inifile FogQueueLen.ini
attr iterationvars ""
attr iterationvarsf ""
attr measurement ""
attr network FogNoLB
attr processid 53192
attr repetition 4
attr replication #4
attr resultdir results
attr runnumber 4
attr seedset 4
param FogNoLB.proctimeMul 0.01
param FogNoLB.rho 0.8
param FogNoLB.fog[*].server[*].capacity 11
param FogNoLB.nSources 100
param FogNoLB.rho 0.9
param FogNoLB.proctimeMul 1.0
param FogNoLB.source[*].appId 1
param FogNoLB.fog[*].nServers 1
param FogNoLB.fog[*].dispatcher.fanOut 1
param FogNoLB.fog[*].server[*].timeSlice -1s
param FogNoLB.fog[*].server[*].capacity 5
param FogNoLB.fog[*].server[*].fifo true
param FogNoLB.fog[*].server[*].maxServiceTime -1s

scalar FogNoLB.fog[0].dispatcher localJobs 517526
scalar FogNoLB.fog[0].dispatcher remoteJobs 0
scalar FogNoLB.fog[0].dispatcher probeQueries 0
scalar FogNoLB.fog[0].dispatcher probeAnswers 0
scalar FogNoLB.fog[0].dispatcher droppedJobsSLA 0
scalar FogNoLB.fog[0].dispatcher jobs_class_1 517526
scalar FogNoLB.fog[0].dispatcher localJobs_class_1 517526
scalar FogNoLB.fog[0].server[0] rho 0.79831922054291
scalar FogNoLB.fog[0].server[0] congestionRatio 0
scalar FogNoLB.fog[0].server[0] totalJobs 517526
scalar FogNoLB.fog[0].server[0] droppedJobsQueue 675
scalar FogNoLB.fog[0].server[0] droppedJobsTimout 3723
scalar FogNoLB.fog[0].server[0] droppedJobsSLA 0
scalar FogNoLB.fog[0].server[0] droppedJobsTotal 4398
scalar FogNoLB.fog[1].dispatcher localJobs 517663
scalar FogNoLB.fog[1].dispatcher remoteJobs 0
scalar FogNoLB.fog[1].dispatcher probeQueries 0
scalar FogNoLB.fog[1].dispatcher probeAnswers 0
scalar FogNoLB.fog[1].dispatcher droppedJobsSLA 0
scalar FogNoLB.fog[1].dispatcher jobs_class_1 517663
scalar FogNoLB.fog[1].dispatcher localJobs_class_1 517663
scalar FogNoLB.fog[1].server[0] rho 0.79846447706223
scalar FogNoLB.fog[1].server[0] congestionRatio 0
scalar FogNoLB.fog[1].server[0] totalJobs 517663
scalar FogNoLB.fog[1].server[0] droppedJobsQueue 685
scalar FogNoLB.fog[1].server[0] droppedJobsTimout 4049
scalar FogNoLB.fog[1].server[0] droppedJobsSLA 0
scalar FogNoLB.fog[1].server[0] droppedJobsTotal 4734
scalar FogNoLB.fog[2].dispatcher localJobs 517767
scalar FogNoLB.fog[2].dispatcher remoteJobs 0
scalar FogNoLB.fog[2].dispatcher probeQueries 0
scalar FogNoLB.fog[2].dispatcher probeAnswers 0
scalar FogNoLB.fog[2].dispatcher droppedJobsSLA 0
scalar FogNoLB.fog[2].dispatcher jobs_class_1 517767
scalar FogNoLB.fog[2].dispatcher localJobs_class_1 517767
scalar FogNoLB.fog[2].server[0] rho 0.79843205213547
scalar FogNoLB.fog[2].server[0] congestionRatio 0
scalar FogNoLB.fog[2].server[0] totalJobs 517767
scalar FogNoLB.fog[2].server[0] droppedJobsQueue 758
scalar FogNoLB.fog[2].server[0] droppedJobsTimout 4181
scalar FogNoLB.fog[2].server[0] droppedJobsSLA 0
scalar FogNoLB.fog[2].server[0] droppedJobsTotal 4939
scalar FogNoLB.fog[3].dispatcher localJobs 516358
scalar FogNoLB.fog[3].dispatcher remoteJobs 0
scalar FogNoLB.fog[3].dispatcher probeQueries 0
scalar FogNoLB.fog[3].dispatcher probeAnswers 0
scalar FogNoLB.fog[3].dispatcher droppedJobsSLA 0
scalar FogNoLB.fog[3].dispatcher jobs_class_1 516358
scalar FogNoLB.fog[3].dispatcher localJobs_class_1 516358
scalar FogNoLB.fog[3].server[0] rho 0.79659640789032
scalar FogNoLB.fog[3].server[0] congestionRatio 0
scalar FogNoLB.fog[3].server[0] totalJobs 516358
scalar FogNoLB.fog[3].server[0] droppedJobsQueue 645
scalar FogNoLB.fog[3].server[0] droppedJobsTimout 3556
scalar FogNoLB.fog[3].server[0] droppedJobsSLA 0
scalar FogNoLB.fog[3].server[0] droppedJobsTotal 4201
scalar FogNoLB.fog[4].dispatcher localJobs 517943
scalar FogNoLB.fog[4].dispatcher remoteJobs 0
scalar FogNoLB.fog[4].dispatcher probeQueries 0
scalar FogNoLB.fog[4].dispatcher probeAnswers 0
scalar FogNoLB.fog[4].dispatcher droppedJobsSLA 0
scalar FogNoLB.fog[4].dispatcher jobs_class_1 517943
scalar FogNoLB.fog[4].dispatcher localJobs_class_1 517943
scalar FogNoLB.fog[4].server[0] rho 0.79904502630234
scalar FogNoLB.fog[4].server[0] congestionRatio 0
scalar FogNoLB.fog[4].server[0] totalJobs 517943
scalar FogNoLB.fog[4].server[0] droppedJobsQueue 612
scalar FogNoLB.fog[4].server[0] droppedJobsTimout 3660
scalar FogNoLB.fog[4].server[0] droppedJobsSLA 0
scalar FogNoLB.fog[4].server[0] droppedJobsTotal 4272
scalar FogNoLB.fog[5].dispatcher localJobs 516736
scalar FogNoLB.fog[5].dispatcher remoteJobs 0
scalar FogNoLB.fog[5].dispatcher probeQueries 0
scalar FogNoLB.fog[5].dispatcher probeAnswers 0
scalar FogNoLB.fog[5].dispatcher droppedJobsSLA 0
scalar FogNoLB.fog[5].dispatcher jobs_class_1 516736
scalar FogNoLB.fog[5].dispatcher localJobs_class_1 516736
scalar FogNoLB.fog[5].server[0] rho 0.79738533496857
scalar FogNoLB.fog[5].server[0] congestionRatio 0
scalar FogNoLB.fog[5].server[0] totalJobs 516736
scalar FogNoLB.fog[5].server[0] droppedJobsQueue 564
scalar FogNoLB.fog[5].server[0] droppedJobsTimout 3531
scalar FogNoLB.fog[5].server[0] droppedJobsSLA 0
scalar FogNoLB.fog[5].server[0] droppedJobsTotal 4095
scalar FogNoLB.fog[6].dispatcher localJobs 517006
scalar FogNoLB.fog[6].dispatcher remoteJobs 0
scalar FogNoLB.fog[6].dispatcher probeQueries 0
scalar FogNoLB.fog[6].dispatcher probeAnswers 0
scalar FogNoLB.fog[6].dispatcher droppedJobsSLA 0
scalar FogNoLB.fog[6].dispatcher jobs_class_1 517006
scalar FogNoLB.fog[6].dispatcher localJobs_class_1 517006
scalar FogNoLB.fog[6].server[0] rho 0.79755282402039
scalar FogNoLB.fog[6].server[0] congestionRatio 0
scalar FogNoLB.fog[6].server[0] totalJobs 517006
scalar FogNoLB.fog[6].server[0] droppedJobsQueue 647
scalar FogNoLB.fog[6].server[0] droppedJobsTimout 3724
scalar FogNoLB.fog[6].server[0] droppedJobsSLA 0
scalar FogNoLB.fog[6].server[0] droppedJobsTotal 4371
scalar FogNoLB.fog[7].dispatcher localJobs 516432
scalar FogNoLB.fog[7].dispatcher remoteJobs 0
scalar FogNoLB.fog[7].dispatcher probeQueries 0
scalar FogNoLB.fog[7].dispatcher probeAnswers 0
scalar FogNoLB.fog[7].dispatcher droppedJobsSLA 0
scalar FogNoLB.fog[7].dispatcher jobs_class_1 516432
scalar FogNoLB.fog[7].dispatcher localJobs_class_1 516432
scalar FogNoLB.fog[7].server[0] rho 0.7966810464859
scalar FogNoLB.fog[7].server[0] congestionRatio 0
scalar FogNoLB.fog[7].server[0] totalJobs 516432
scalar FogNoLB.fog[7].server[0] droppedJobsQueue 657
scalar FogNoLB.fog[7].server[0] droppedJobsTimout 3756
scalar FogNoLB.fog[7].server[0] droppedJobsSLA 0
scalar FogNoLB.fog[7].server[0] droppedJobsTotal 4413
scalar FogNoLB.fog[8].dispatcher localJobs 518775
scalar FogNoLB.fog[8].dispatcher remoteJobs 0
scalar FogNoLB.fog[8].dispatcher probeQueries 0
scalar FogNoLB.fog[8].dispatcher probeAnswers 0
scalar FogNoLB.fog[8].dispatcher droppedJobsSLA 0
scalar FogNoLB.fog[8].dispatcher jobs_class_1 518775
scalar FogNoLB.fog[8].dispatcher localJobs_class_1 518775
scalar FogNoLB.fog[8].server[0] rho 0.79988294839859
scalar FogNoLB.fog[8].server[0] congestionRatio 0
scalar FogNoLB.fog[8].server[0] totalJobs 518775
scalar FogNoLB.fog[8].server[0] droppedJobsQueue 832
scalar FogNoLB.fog[8].server[0] droppedJobsTimout 4278
scalar FogNoLB.fog[8].server[0] droppedJobsSLA 0
scalar FogNoLB.fog[8].server[0] droppedJobsTotal 5110
scalar FogNoLB.fog[9].dispatcher localJobs 515997
scalar FogNoLB.fog[9].dispatcher remoteJobs 0
scalar FogNoLB.fog[9].dispatcher probeQueries 0
scalar FogNoLB.fog[9].dispatcher probeAnswers 0
scalar FogNoLB.fog[9].dispatcher droppedJobsSLA 0
scalar FogNoLB.fog[9].dispatcher jobs_class_1 515997
scalar FogNoLB.fog[9].dispatcher localJobs_class_1 515997
scalar FogNoLB.fog[9].server[0] rho 0.79604023694992
scalar FogNoLB.fog[9].server[0] congestionRatio 0
scalar FogNoLB.fog[9].server[0] totalJobs 515997
scalar FogNoLB.fog[9].server[0] droppedJobsQueue 650
scalar FogNoLB.fog[9].server[0] droppedJobsTimout 3498
scalar FogNoLB.fog[9].server[0] droppedJobsSLA 0
scalar FogNoLB.fog[9].server[0] droppedJobsTotal 4148
scalar FogNoLB.fog[10].dispatcher localJobs 517937
scalar FogNoLB.fog[10].dispatcher remoteJobs 0
scalar FogNoLB.fog[10].dispatcher probeQueries 0
scalar FogNoLB.fog[10].dispatcher probeAnswers 0
scalar FogNoLB.fog[10].dispatcher droppedJobsSLA 0
scalar FogNoLB.fog[10].dispatcher jobs_class_1 517937
scalar FogNoLB.fog[10].dispatcher localJobs_class_1 517937
scalar FogNoLB.fog[10].server[0] rho 0.7987607717514
scalar FogNoLB.fog[10].server[0] congestionRatio 0
scalar FogNoLB.fog[10].server[0] totalJobs 517937
scalar FogNoLB.fog[10].server[0] droppedJobsQueue 752
scalar FogNoLB.fog[10].server[0] droppedJobsTimout 3914
scalar FogNoLB.fog[10].server[0] droppedJobsSLA 0
scalar FogNoLB.fog[10].server[0] droppedJobsTotal 4666
scalar FogNoLB.fog[11].dispatcher localJobs 516678
scalar FogNoLB.fog[11].dispatcher remoteJobs 0
scalar FogNoLB.fog[11].dispatcher probeQueries 0
scalar FogNoLB.fog[11].dispatcher probeAnswers 0
scalar FogNoLB.fog[11].dispatcher droppedJobsSLA 0
scalar FogNoLB.fog[11].dispatcher jobs_class_1 516678
scalar FogNoLB.fog[11].dispatcher localJobs_class_1 516678
scalar FogNoLB.fog[11].server[0] rho 0.79718559980392
scalar FogNoLB.fog[11].server[0] congestionRatio 0
scalar FogNoLB.fog[11].server[0] totalJobs 516678
scalar FogNoLB.fog[11].server[0] droppedJobsQueue 573
scalar FogNoLB.fog[11].server[0] droppedJobsTimout 3508
scalar FogNoLB.fog[11].server[0] droppedJobsSLA 0
scalar FogNoLB.fog[11].server[0] droppedJobsTotal 4081
scalar FogNoLB.fog[12].dispatcher localJobs 516058
scalar FogNoLB.fog[12].dispatcher remoteJobs 0
scalar FogNoLB.fog[12].dispatcher probeQueries 0
scalar FogNoLB.fog[12].dispatcher probeAnswers 0
scalar FogNoLB.fog[12].dispatcher droppedJobsSLA 0
scalar FogNoLB.fog[12].dispatcher jobs_class_1 516058
scalar FogNoLB.fog[12].dispatcher localJobs_class_1 516058
scalar FogNoLB.fog[12].server[0] rho 0.79610180854797
scalar FogNoLB.fog[12].server[0] congestionRatio 0
scalar FogNoLB.fog[12].server[0] totalJobs 516058
scalar FogNoLB.fog[12].server[0] droppedJobsQueue 665
scalar FogNoLB.fog[12].server[0] droppedJobsTimout 3702
scalar FogNoLB.fog[12].server[0] droppedJobsSLA 0
scalar FogNoLB.fog[12].server[0] droppedJobsTotal 4367
scalar FogNoLB.fog[13].dispatcher localJobs 516803
scalar FogNoLB.fog[13].dispatcher remoteJobs 0
scalar FogNoLB.fog[13].dispatcher probeQueries 0
scalar FogNoLB.fog[13].dispatcher probeAnswers 0
scalar FogNoLB.fog[13].dispatcher droppedJobsSLA 0
scalar FogNoLB.fog[13].dispatcher jobs_class_1 516803
scalar FogNoLB.fog[13].dispatcher localJobs_class_1 516803
scalar FogNoLB.fog[13].server[0] rho 0.79728078842163
scalar FogNoLB.fog[13].server[0] congestionRatio 0
scalar FogNoLB.fog[13].server[0] totalJobs 516803
scalar FogNoLB.fog[13].server[0] droppedJobsQueue 636
scalar FogNoLB.fog[13].server[0] droppedJobsTimout 3655
scalar FogNoLB.fog[13].server[0] droppedJobsSLA 0
scalar FogNoLB.fog[13].server[0] droppedJobsTotal 4291
scalar FogNoLB.fog[14].dispatcher localJobs 516681
scalar FogNoLB.fog[14].dispatcher remoteJobs 0
scalar FogNoLB.fog[14].dispatcher probeQueries 0
scalar FogNoLB.fog[14].dispatcher probeAnswers 0
scalar FogNoLB.fog[14].dispatcher droppedJobsSLA 0
scalar FogNoLB.fog[14].dispatcher jobs_class_1 516681
scalar FogNoLB.fog[14].dispatcher localJobs_class_1 516681
scalar FogNoLB.fog[14].server[0] rho 0.79728364944458
scalar FogNoLB.fog[14].server[0] congestionRatio 0
scalar FogNoLB.fog[14].server[0] totalJobs 516681
scalar FogNoLB.fog[14].server[0] droppedJobsQueue 567
scalar FogNoLB.fog[14].server[0] droppedJobsTimout 3395
scalar FogNoLB.fog[14].server[0] droppedJobsSLA 0
scalar FogNoLB.fog[14].server[0] droppedJobsTotal 3962
scalar FogNoLB.fog[15].dispatcher localJobs 518481
scalar FogNoLB.fog[15].dispatcher remoteJobs 0
scalar FogNoLB.fog[15].dispatcher probeQueries 0
scalar FogNoLB.fog[15].dispatcher probeAnswers 0
scalar FogNoLB.fog[15].dispatcher droppedJobsSLA 0
scalar FogNoLB.fog[15].dispatcher jobs_class_1 518481
scalar FogNoLB.fog[15].dispatcher localJobs_class_1 518481
scalar FogNoLB.fog[15].server[0] rho 0.79961431026459
scalar FogNoLB.fog[15].server[0] congestionRatio 0
scalar FogNoLB.fog[15].server[0] totalJobs 518481
scalar FogNoLB.fog[15].server[0] droppedJobsQueue 759
scalar FogNoLB.fog[15].server[0] droppedJobsTimout 3961
scalar FogNoLB.fog[15].server[0] droppedJobsSLA 0
scalar FogNoLB.fog[15].server[0] droppedJobsTotal 4720
scalar FogNoLB.fog[16].dispatcher localJobs 517130
scalar FogNoLB.fog[16].dispatcher remoteJobs 0
scalar FogNoLB.fog[16].dispatcher probeQueries 0
scalar FogNoLB.fog[16].dispatcher probeAnswers 0
scalar FogNoLB.fog[16].dispatcher droppedJobsSLA 0
scalar FogNoLB.fog[16].dispatcher jobs_class_1 517130
scalar FogNoLB.fog[16].dispatcher localJobs_class_1 517130
scalar FogNoLB.fog[16].server[0] rho 0.79760468006134
scalar FogNoLB.fog[16].server[0] congestionRatio 0
scalar FogNoLB.fog[16].server[0] totalJobs 517130
scalar FogNoLB.fog[16].server[0] droppedJobsQueue 722
scalar FogNoLB.fog[16].server[0] droppedJobsTimout 3960
scalar FogNoLB.fog[16].server[0] droppedJobsSLA 0
scalar FogNoLB.fog[16].server[0] droppedJobsTotal 4682
scalar FogNoLB.fog[17].dispatcher localJobs 518705
scalar FogNoLB.fog[17].dispatcher remoteJobs 0
scalar FogNoLB.fog[17].dispatcher probeQueries 0
scalar FogNoLB.fog[17].dispatcher probeAnswers 0
scalar FogNoLB.fog[17].dispatcher droppedJobsSLA 0
scalar FogNoLB.fog[17].dispatcher jobs_class_1 518705
scalar FogNoLB.fog[17].dispatcher localJobs_class_1 518705
scalar FogNoLB.fog[17].server[0] rho 0.79994523525238
scalar FogNoLB.fog[17].server[0] congestionRatio 0
scalar FogNoLB.fog[17].server[0] totalJobs 518705
scalar FogNoLB.fog[17].server[0] droppedJobsQueue 757
scalar FogNoLB.fog[17].server[0] droppedJobsTimout 3955
scalar FogNoLB.fog[17].server[0] droppedJobsSLA 0
scalar FogNoLB.fog[17].server[0] droppedJobsTotal 4712
scalar FogNoLB.fog[18].dispatcher localJobs 517088
scalar FogNoLB.fog[18].dispatcher remoteJobs 0
scalar FogNoLB.fog[18].dispatcher probeQueries 0
scalar FogNoLB.fog[18].dispatcher probeAnswers 0
scalar FogNoLB.fog[18].dispatcher droppedJobsSLA 0
scalar FogNoLB.fog[18].dispatcher jobs_class_1 517088
scalar FogNoLB.fog[18].dispatcher localJobs_class_1 517088
scalar FogNoLB.fog[18].server[0] rho 0.79756873846054
scalar FogNoLB.fog[18].server[0] congestionRatio 0
scalar FogNoLB.fog[18].server[0] totalJobs 517088
scalar FogNoLB.fog[18].server[0] droppedJobsQueue 675
scalar FogNoLB.fog[18].server[0] droppedJobsTimout 3770
scalar FogNoLB.fog[18].server[0] droppedJobsSLA 0
scalar FogNoLB.fog[18].server[0] droppedJobsTotal 4445
scalar FogNoLB.fog[19].dispatcher localJobs 518828
scalar FogNoLB.fog[19].dispatcher remoteJobs 0
scalar FogNoLB.fog[19].dispatcher probeQueries 0
scalar FogNoLB.fog[19].dispatcher probeAnswers 0
scalar FogNoLB.fog[19].dispatcher droppedJobsSLA 0
scalar FogNoLB.fog[19].dispatcher jobs_class_1 518828
scalar FogNoLB.fog[19].dispatcher localJobs_class_1 518828
scalar FogNoLB.fog[19].server[0] rho 0.80043625831604
scalar FogNoLB.fog[19].server[0] congestionRatio 0
scalar FogNoLB.fog[19].server[0] totalJobs 518828
scalar FogNoLB.fog[19].server[0] droppedJobsQueue 658
scalar FogNoLB.fog[19].server[0] droppedJobsTimout 3534
scalar FogNoLB.fog[19].server[0] droppedJobsSLA 0
scalar FogNoLB.fog[19].server[0] droppedJobsTotal 4192
scalar FogNoLB.fog[20].dispatcher localJobs 516331
scalar FogNoLB.fog[20].dispatcher remoteJobs 0
scalar FogNoLB.fog[20].dispatcher probeQueries 0
scalar FogNoLB.fog[20].dispatcher probeAnswers 0
scalar FogNoLB.fog[20].dispatcher droppedJobsSLA 0
scalar FogNoLB.fog[20].dispatcher jobs_class_1 516331
scalar FogNoLB.fog[20].dispatcher localJobs_class_1 516331
scalar FogNoLB.fog[20].server[0] rho 0.79640454053879
scalar FogNoLB.fog[20].server[0] congestionRatio 0
scalar FogNoLB.fog[20].server[0] totalJobs 516331
scalar FogNoLB.fog[20].server[0] droppedJobsQueue 713
scalar FogNoLB.fog[20].server[0] droppedJobsTimout 3618
scalar FogNoLB.fog[20].server[0] droppedJobsSLA 0
scalar FogNoLB.fog[20].server[0] droppedJobsTotal 4331
scalar FogNoLB.fog[21].dispatcher localJobs 517622
scalar FogNoLB.fog[21].dispatcher remoteJobs 0
scalar FogNoLB.fog[21].dispatcher probeQueries 0
scalar FogNoLB.fog[21].dispatcher probeAnswers 0
scalar FogNoLB.fog[21].dispatcher droppedJobsSLA 0
scalar FogNoLB.fog[21].dispatcher jobs_class_1 517622
scalar FogNoLB.fog[21].dispatcher localJobs_class_1 517622
scalar FogNoLB.fog[21].server[0] rho 0.79823035001755
scalar FogNoLB.fog[21].server[0] congestionRatio 0
scalar FogNoLB.fog[21].server[0] totalJobs 517622
scalar FogNoLB.fog[21].server[0] droppedJobsQueue 779
scalar FogNoLB.fog[21].server[0] droppedJobsTimout 3808
scalar FogNoLB.fog[21].server[0] droppedJobsSLA 0
scalar FogNoLB.fog[21].server[0] droppedJobsTotal 4587
scalar FogNoLB.fog[22].dispatcher localJobs 516753
scalar FogNoLB.fog[22].dispatcher remoteJobs 0
scalar FogNoLB.fog[22].dispatcher probeQueries 0
scalar FogNoLB.fog[22].dispatcher probeAnswers 0
scalar FogNoLB.fog[22].dispatcher droppedJobsSLA 0
scalar FogNoLB.fog[22].dispatcher jobs_class_1 516753
scalar FogNoLB.fog[22].dispatcher localJobs_class_1 516753
scalar FogNoLB.fog[22].server[0] rho 0.79716467857361
scalar FogNoLB.fog[22].server[0] congestionRatio 0
scalar FogNoLB.fog[22].server[0] totalJobs 516753
scalar FogNoLB.fog[22].server[0] droppedJobsQueue 658
scalar FogNoLB.fog[22].server[0] droppedJobsTimout 3760
scalar FogNoLB.fog[22].server[0] droppedJobsSLA 0
scalar FogNoLB.fog[22].server[0] droppedJobsTotal 4418
scalar FogNoLB.fog[23].dispatcher localJobs 517418
scalar FogNoLB.fog[23].dispatcher remoteJobs 0
scalar FogNoLB.fog[23].dispatcher probeQueries 0
scalar FogNoLB.fog[23].dispatcher probeAnswers 0
scalar FogNoLB.fog[23].dispatcher droppedJobsSLA 0
scalar FogNoLB.fog[23].dispatcher jobs_class_1 517418
scalar FogNoLB.fog[23].dispatcher localJobs_class_1 517418
scalar FogNoLB.fog[23].server[0] rho 0.79823714494705
scalar FogNoLB.fog[23].server[0] congestionRatio 0
scalar FogNoLB.fog[23].server[0] totalJobs 517418
scalar FogNoLB.fog[23].server[0] droppedJobsQueue 628
scalar FogNoLB.fog[23].server[0] droppedJobsTimout 3530
scalar FogNoLB.fog[23].server[0] droppedJobsSLA 0
scalar FogNoLB.fog[23].server[0] droppedJobsTotal 4158
scalar FogNoLB.fog[24].dispatcher localJobs 516511
scalar FogNoLB.fog[24].dispatcher remoteJobs 0
scalar FogNoLB.fog[24].dispatcher probeQueries 0
scalar FogNoLB.fog[24].dispatcher probeAnswers 0
scalar FogNoLB.fog[24].dispatcher droppedJobsSLA 0
scalar FogNoLB.fog[24].dispatcher jobs_class_1 516511
scalar FogNoLB.fog[24].dispatcher localJobs_class_1 516511
scalar FogNoLB.fog[24].server[0] rho 0.79687815904617
scalar FogNoLB.fog[24].server[0] congestionRatio 0
scalar FogNoLB.fog[24].server[0] totalJobs 516511
scalar FogNoLB.fog[24].server[0] droppedJobsQueue 642
scalar FogNoLB.fog[24].server[0] droppedJobsTimout 3584
scalar FogNoLB.fog[24].server[0] droppedJobsSLA 0
scalar FogNoLB.fog[24].server[0] droppedJobsTotal 4226
scalar FogNoLB.fog[25].dispatcher localJobs 517094
scalar FogNoLB.fog[25].dispatcher remoteJobs 0
scalar FogNoLB.fog[25].dispatcher probeQueries 0
scalar FogNoLB.fog[25].dispatcher probeAnswers 0
scalar FogNoLB.fog[25].dispatcher droppedJobsSLA 0
scalar FogNoLB.fog[25].dispatcher jobs_class_1 517094
scalar FogNoLB.fog[25].dispatcher localJobs_class_1 517094
scalar FogNoLB.fog[25].server[0] rho 0.7973912358284
scalar FogNoLB.fog[25].server[0] congestionRatio 0
scalar FogNoLB.fog[25].server[0] totalJobs 517094
scalar FogNoLB.fog[25].server[0] droppedJobsQueue 752
scalar FogNoLB.fog[25].server[0] droppedJobsTimout 4035
scalar FogNoLB.fog[25].server[0] droppedJobsSLA 0
scalar FogNoLB.fog[25].server[0] droppedJobsTotal 4787
scalar FogNoLB.fog[26].dispatcher localJobs 517393
scalar FogNoLB.fog[26].dispatcher remoteJobs 0
scalar FogNoLB.fog[26].dispatcher probeQueries 0
scalar FogNoLB.fog[26].dispatcher probeAnswers 0
scalar FogNoLB.fog[26].dispatcher droppedJobsSLA 0
scalar FogNoLB.fog[26].dispatcher jobs_class_1 517393
scalar FogNoLB.fog[26].dispatcher localJobs_class_1 517393
scalar FogNoLB.fog[26].server[0] rho 0.79795688390732
scalar FogNoLB.fog[26].server[0] congestionRatio 0
scalar FogNoLB.fog[26].server[0] totalJobs 517393
scalar FogNoLB.fog[26].server[0] droppedJobsQueue 735
scalar FogNoLB.fog[26].server[0] droppedJobsTimout 4093
scalar FogNoLB.fog[26].server[0] droppedJobsSLA 0
scalar FogNoLB.fog[26].server[0] droppedJobsTotal 4828
scalar FogNoLB.fog[27].dispatcher localJobs 516572
scalar FogNoLB.fog[27].dispatcher remoteJobs 0
scalar FogNoLB.fog[27].dispatcher probeQueries 0
scalar FogNoLB.fog[27].dispatcher probeAnswers 0
scalar FogNoLB.fog[27].dispatcher droppedJobsSLA 0
scalar FogNoLB.fog[27].dispatcher jobs_class_1 516572
scalar FogNoLB.fog[27].dispatcher localJobs_class_1 516572
scalar FogNoLB.fog[27].server[0] rho 0.79703813791275
scalar FogNoLB.fog[27].server[0] congestionRatio 0
scalar FogNoLB.fog[27].server[0] totalJobs 516572
scalar FogNoLB.fog[27].server[0] droppedJobsQueue 612
scalar FogNoLB.fog[27].server[0] droppedJobsTimout 3469
scalar FogNoLB.fog[27].server[0] droppedJobsSLA 0
scalar FogNoLB.fog[27].server[0] droppedJobsTotal 4081
scalar FogNoLB.fog[28].dispatcher localJobs 517286
scalar FogNoLB.fog[28].dispatcher remoteJobs 0
scalar FogNoLB.fog[28].dispatcher probeQueries 0
scalar FogNoLB.fog[28].dispatcher probeAnswers 0
scalar FogNoLB.fog[28].dispatcher droppedJobsSLA 0
scalar FogNoLB.fog[28].dispatcher jobs_class_1 517286
scalar FogNoLB.fog[28].dispatcher localJobs_class_1 517286
scalar FogNoLB.fog[28].server[0] rho 0.79791539907455
scalar FogNoLB.fog[28].server[0] congestionRatio 0
scalar FogNoLB.fog[28].server[0] totalJobs 517286
scalar FogNoLB.fog[28].server[0] droppedJobsQueue 676
scalar FogNoLB.fog[28].server[0] droppedJobsTimout 3841
scalar FogNoLB.fog[28].server[0] droppedJobsSLA 0
scalar FogNoLB.fog[28].server[0] droppedJobsTotal 4517
scalar FogNoLB.fog[29].dispatcher localJobs 516814
scalar FogNoLB.fog[29].dispatcher remoteJobs 0
scalar FogNoLB.fog[29].dispatcher probeQueries 0
scalar FogNoLB.fog[29].dispatcher probeAnswers 0
scalar FogNoLB.fog[29].dispatcher droppedJobsSLA 0
scalar FogNoLB.fog[29].dispatcher jobs_class_1 516814
scalar FogNoLB.fog[29].dispatcher localJobs_class_1 516814
scalar FogNoLB.fog[29].server[0] rho 0.79735887050629
scalar FogNoLB.fog[29].server[0] congestionRatio 0
scalar FogNoLB.fog[29].server[0] totalJobs 516814
scalar FogNoLB.fog[29].server[0] droppedJobsQueue 619
scalar FogNoLB.fog[29].server[0] droppedJobsTimout 3598
scalar FogNoLB.fog[29].server[0] droppedJobsSLA 0
scalar FogNoLB.fog[29].server[0] droppedJobsTotal 4217
scalar FogNoLB.fog[30].dispatcher localJobs 518092
scalar FogNoLB.fog[30].dispatcher remoteJobs 0
scalar FogNoLB.fog[30].dispatcher probeQueries 0
scalar FogNoLB.fog[30].dispatcher probeAnswers 0
scalar FogNoLB.fog[30].dispatcher droppedJobsSLA 0
scalar FogNoLB.fog[30].dispatcher jobs_class_1 518092
scalar FogNoLB.fog[30].dispatcher localJobs_class_1 518092
scalar FogNoLB.fog[30].server[0] rho 0.7992297410965
scalar FogNoLB.fog[30].server[0] congestionRatio 0
scalar FogNoLB.fog[30].server[0] totalJobs 518092
scalar FogNoLB.fog[30].server[0] droppedJobsQueue 673
scalar FogNoLB.fog[30].server[0] droppedJobsTimout 3747
scalar FogNoLB.fog[30].server[0] droppedJobsSLA 0
scalar FogNoLB.fog[30].server[0] droppedJobsTotal 4420
scalar FogNoLB.fog[31].dispatcher localJobs 516894
scalar FogNoLB.fog[31].dispatcher remoteJobs 0
scalar FogNoLB.fog[31].dispatcher probeQueries 0
scalar FogNoLB.fog[31].dispatcher probeAnswers 0
scalar FogNoLB.fog[31].dispatcher droppedJobsSLA 0
scalar FogNoLB.fog[31].dispatcher jobs_class_1 516894
scalar FogNoLB.fog[31].dispatcher localJobs_class_1 516894
scalar FogNoLB.fog[31].server[0] rho 0.79755920171738
scalar FogNoLB.fog[31].server[0] congestionRatio 0
scalar FogNoLB.fog[31].server[0] totalJobs 516894
scalar FogNoLB.fog[31].server[0] droppedJobsQueue 585
scalar FogNoLB.fog[31].server[0] droppedJobsTimout 3390
scalar FogNoLB.fog[31].server[0] droppedJobsSLA 0
scalar FogNoLB.fog[31].server[0] droppedJobsTotal 3975
scalar FogNoLB.fog[32].dispatcher localJobs 518380
scalar FogNoLB.fog[32].dispatcher remoteJobs 0
scalar FogNoLB.fog[32].dispatcher probeQueries 0
scalar FogNoLB.fog[32].dispatcher probeAnswers 0
scalar FogNoLB.fog[32].dispatcher droppedJobsSLA 0
scalar FogNoLB.fog[32].dispatcher jobs_class_1 518380
scalar FogNoLB.fog[32].dispatcher localJobs_class_1 518380
scalar FogNoLB.fog[32].server[0] rho 0.79933971166611
scalar FogNoLB.fog[32].server[0] congestionRatio 0
scalar FogNoLB.fog[32].server[0] totalJobs 518380
scalar FogNoLB.fog[32].server[0] droppedJobsQueue 797
scalar FogNoLB.fog[32].server[0] droppedJobsTimout 4202
scalar FogNoLB.fog[32].server[0] droppedJobsSLA 0
scalar FogNoLB.fog[32].server[0] droppedJobsTotal 4999
scalar FogNoLB.fog[33].dispatcher localJobs 516719
scalar FogNoLB.fog[33].dispatcher remoteJobs 0
scalar FogNoLB.fog[33].dispatcher probeQueries 0
scalar FogNoLB.fog[33].dispatcher probeAnswers 0
scalar FogNoLB.fog[33].dispatcher droppedJobsSLA 0
scalar FogNoLB.fog[33].dispatcher jobs_class_1 516719
scalar FogNoLB.fog[33].dispatcher localJobs_class_1 516719
scalar FogNoLB.fog[33].server[0] rho 0.7969788312912
scalar FogNoLB.fog[33].server[0] congestionRatio 0
scalar FogNoLB.fog[33].server[0] totalJobs 516719
scalar FogNoLB.fog[33].server[0] droppedJobsQueue 738
scalar FogNoLB.fog[33].server[0] droppedJobsTimout 3783
scalar FogNoLB.fog[33].server[0] droppedJobsSLA 0
scalar FogNoLB.fog[33].server[0] droppedJobsTotal 4521
scalar FogNoLB.fog[34].dispatcher localJobs 517634
scalar FogNoLB.fog[34].dispatcher remoteJobs 0
scalar FogNoLB.fog[34].dispatcher probeQueries 0
scalar FogNoLB.fog[34].dispatcher probeAnswers 0
scalar FogNoLB.fog[34].dispatcher droppedJobsSLA 0
scalar FogNoLB.fog[34].dispatcher jobs_class_1 517634
scalar FogNoLB.fog[34].dispatcher localJobs_class_1 517634
scalar FogNoLB.fog[34].server[0] rho 0.79848355054855
scalar FogNoLB.fog[34].server[0] congestionRatio 0
scalar FogNoLB.fog[34].server[0] totalJobs 517634
scalar FogNoLB.fog[34].server[0] droppedJobsQueue 679
scalar FogNoLB.fog[34].server[0] droppedJobsTimout 3716
scalar FogNoLB.fog[34].server[0] droppedJobsSLA 0
scalar FogNoLB.fog[34].server[0] droppedJobsTotal 4395
scalar FogNoLB.fog[35].dispatcher localJobs 515361
scalar FogNoLB.fog[35].dispatcher remoteJobs 0
scalar FogNoLB.fog[35].dispatcher probeQueries 0
scalar FogNoLB.fog[35].dispatcher probeAnswers 0
scalar FogNoLB.fog[35].dispatcher droppedJobsSLA 0
scalar FogNoLB.fog[35].dispatcher jobs_class_1 515361
scalar FogNoLB.fog[35].dispatcher localJobs_class_1 515361
scalar FogNoLB.fog[35].server[0] rho 0.79496049880981
scalar FogNoLB.fog[35].server[0] congestionRatio 0
scalar FogNoLB.fog[35].server[0] totalJobs 515361
scalar FogNoLB.fog[35].server[0] droppedJobsQueue 668
scalar FogNoLB.fog[35].server[0] droppedJobsTimout 3723
scalar FogNoLB.fog[35].server[0] droppedJobsSLA 0
scalar FogNoLB.fog[35].server[0] droppedJobsTotal 4391
scalar FogNoLB.fog[36].dispatcher localJobs 518149
scalar FogNoLB.fog[36].dispatcher remoteJobs 0
scalar FogNoLB.fog[36].dispatcher probeQueries 0
scalar FogNoLB.fog[36].dispatcher probeAnswers 0
scalar FogNoLB.fog[36].dispatcher droppedJobsSLA 0
scalar FogNoLB.fog[36].dispatcher jobs_class_1 518149
scalar FogNoLB.fog[36].dispatcher localJobs_class_1 518149
scalar FogNoLB.fog[36].server[0] rho 0.79919481277466
scalar FogNoLB.fog[36].server[0] congestionRatio 0
scalar FogNoLB.fog[36].server[0] totalJobs 518149
scalar FogNoLB.fog[36].server[0] droppedJobsQueue 717
scalar FogNoLB.fog[36].server[0] droppedJobsTimout 3825
scalar FogNoLB.fog[36].server[0] droppedJobsSLA 0
scalar FogNoLB.fog[36].server[0] droppedJobsTotal 4542
scalar FogNoLB.fog[37].dispatcher localJobs 518159
scalar FogNoLB.fog[37].dispatcher remoteJobs 0
scalar FogNoLB.fog[37].dispatcher probeQueries 0
scalar FogNoLB.fog[37].dispatcher probeAnswers 0
scalar FogNoLB.fog[37].dispatcher droppedJobsSLA 0
scalar FogNoLB.fog[37].dispatcher jobs_class_1 518159
scalar FogNoLB.fog[37].dispatcher localJobs_class_1 518159
scalar FogNoLB.fog[37].server[0] rho 0.79910010099411
scalar FogNoLB.fog[37].server[0] congestionRatio 0
scalar FogNoLB.fog[37].server[0] totalJobs 518159
scalar FogNoLB.fog[37].server[0] droppedJobsQueue 767
scalar FogNoLB.fog[37].server[0] droppedJobsTimout 3964
scalar FogNoLB.fog[37].server[0] droppedJobsSLA 0
scalar FogNoLB.fog[37].server[0] droppedJobsTotal 4731
scalar FogNoLB.fog[38].dispatcher localJobs 517237
scalar FogNoLB.fog[38].dispatcher remoteJobs 0
scalar FogNoLB.fog[38].dispatcher probeQueries 0
scalar FogNoLB.fog[38].dispatcher probeAnswers 0
scalar FogNoLB.fog[38].dispatcher droppedJobsSLA 0
scalar FogNoLB.fog[38].dispatcher jobs_class_1 517237
scalar FogNoLB.fog[38].dispatcher localJobs_class_1 517237
scalar FogNoLB.fog[38].server[0] rho 0.7978972196579
scalar FogNoLB.fog[38].server[0] congestionRatio 0
scalar FogNoLB.fog[38].server[0] totalJobs 517237
scalar FogNoLB.fog[38].server[0] droppedJobsQueue 653
scalar FogNoLB.fog[38].server[0] droppedJobsTimout 3787
scalar FogNoLB.fog[38].server[0] droppedJobsSLA 0
scalar FogNoLB.fog[38].server[0] droppedJobsTotal 4440
scalar FogNoLB.fog[39].dispatcher localJobs 516422
scalar FogNoLB.fog[39].dispatcher remoteJobs 0
scalar FogNoLB.fog[39].dispatcher probeQueries 0
scalar FogNoLB.fog[39].dispatcher probeAnswers 0
scalar FogNoLB.fog[39].dispatcher droppedJobsSLA 0
scalar FogNoLB.fog[39].dispatcher jobs_class_1 516422
scalar FogNoLB.fog[39].dispatcher localJobs_class_1 516422
scalar FogNoLB.fog[39].server[0] rho 0.79667437076569
scalar FogNoLB.fog[39].server[0] congestionRatio 0
scalar FogNoLB.fog[39].server[0] totalJobs 516422
scalar FogNoLB.fog[39].server[0] droppedJobsQueue 646
scalar FogNoLB.fog[39].server[0] droppedJobsTimout 3656
scalar FogNoLB.fog[39].server[0] droppedJobsSLA 0
scalar FogNoLB.fog[39].server[0] droppedJobsTotal 4302
scalar FogNoLB.fog[40].dispatcher localJobs 517816
scalar FogNoLB.fog[40].dispatcher remoteJobs 0
scalar FogNoLB.fog[40].dispatcher probeQueries 0
scalar FogNoLB.fog[40].dispatcher probeAnswers 0
scalar FogNoLB.fog[40].dispatcher droppedJobsSLA 0
scalar FogNoLB.fog[40].dispatcher jobs_class_1 517816
scalar FogNoLB.fog[40].dispatcher localJobs_class_1 517816
scalar FogNoLB.fog[40].server[0] rho 0.79875230789185
scalar FogNoLB.fog[40].server[0] congestionRatio 0
scalar FogNoLB.fog[40].server[0] totalJobs 517816
scalar FogNoLB.fog[40].server[0] droppedJobsQueue 671
scalar FogNoLB.fog[40].server[0] droppedJobsTimout 3784
scalar FogNoLB.fog[40].server[0] droppedJobsSLA 0
scalar FogNoLB.fog[40].server[0] droppedJobsTotal 4455
scalar FogNoLB.fog[41].dispatcher localJobs 517581
scalar FogNoLB.fog[41].dispatcher remoteJobs 0
scalar FogNoLB.fog[41].dispatcher probeQueries 0
scalar FogNoLB.fog[41].dispatcher probeAnswers 0
scalar FogNoLB.fog[41].dispatcher droppedJobsSLA 0
scalar FogNoLB.fog[41].dispatcher jobs_class_1 517581
scalar FogNoLB.fog[41].dispatcher localJobs_class_1 517581
scalar FogNoLB.fog[41].server[0] rho 0.79841291904449
scalar FogNoLB.fog[41].server[0] congestionRatio 0
scalar FogNoLB.fog[41].server[0] totalJobs 517581
scalar FogNoLB.fog[41].server[0] droppedJobsQueue 647
scalar FogNoLB.fog[41].server[0] droppedJobsTimout 3830
scalar FogNoLB.fog[41].server[0] droppedJobsSLA 0
scalar FogNoLB.fog[41].server[0] droppedJobsTotal 4477
scalar FogNoLB.fog[42].dispatcher localJobs 516602
scalar FogNoLB.fog[42].dispatcher remoteJobs 0
scalar FogNoLB.fog[42].dispatcher probeQueries 0
scalar FogNoLB.fog[42].dispatcher probeAnswers 0
scalar FogNoLB.fog[42].dispatcher droppedJobsSLA 0
scalar FogNoLB.fog[42].dispatcher jobs_class_1 516602
scalar FogNoLB.fog[42].dispatcher localJobs_class_1 516602
scalar FogNoLB.fog[42].server[0] rho 0.79707598686218
scalar FogNoLB.fog[42].server[0] congestionRatio 0
scalar FogNoLB.fog[42].server[0] totalJobs 516602
scalar FogNoLB.fog[42].server[0] droppedJobsQueue 593
scalar FogNoLB.fog[42].server[0] droppedJobsTimout 3339
scalar FogNoLB.fog[42].server[0] droppedJobsSLA 0
scalar FogNoLB.fog[42].server[0] droppedJobsTotal 3932
scalar FogNoLB.fog[43].dispatcher localJobs 516826
scalar FogNoLB.fog[43].dispatcher remoteJobs 0
scalar FogNoLB.fog[43].dispatcher probeQueries 0
scalar FogNoLB.fog[43].dispatcher probeAnswers 0
scalar FogNoLB.fog[43].dispatcher droppedJobsSLA 0
scalar FogNoLB.fog[43].dispatcher jobs_class_1 516826
scalar FogNoLB.fog[43].dispatcher localJobs_class_1 516826
scalar FogNoLB.fog[43].server[0] rho 0.79755288362503
scalar FogNoLB.fog[43].server[0] congestionRatio 0
scalar FogNoLB.fog[43].server[0] totalJobs 516826
scalar FogNoLB.fog[43].server[0] droppedJobsQueue 539
scalar FogNoLB.fog[43].server[0] droppedJobsTimout 3512
scalar FogNoLB.fog[43].server[0] droppedJobsSLA 0
scalar FogNoLB.fog[43].server[0] droppedJobsTotal 4051
scalar FogNoLB.fog[44].dispatcher localJobs 518001
scalar FogNoLB.fog[44].dispatcher remoteJobs 0
scalar FogNoLB.fog[44].dispatcher probeQueries 0
scalar FogNoLB.fog[44].dispatcher probeAnswers 0
scalar FogNoLB.fog[44].dispatcher droppedJobsSLA 0
scalar FogNoLB.fog[44].dispatcher jobs_class_1 518001
scalar FogNoLB.fog[44].dispatcher localJobs_class_1 518001
scalar FogNoLB.fog[44].server[0] rho 0.79892766475677
scalar FogNoLB.fog[44].server[0] congestionRatio 0
scalar FogNoLB.fog[44].server[0] totalJobs 518001
scalar FogNoLB.fog[44].server[0] droppedJobsQueue 712
scalar FogNoLB.fog[44].server[0] droppedJobsTimout 3907
scalar FogNoLB.fog[44].server[0] droppedJobsSLA 0
scalar FogNoLB.fog[44].server[0] droppedJobsTotal 4619
scalar FogNoLB.fog[45].dispatcher localJobs 518020
scalar FogNoLB.fog[45].dispatcher remoteJobs 0
scalar FogNoLB.fog[45].dispatcher probeQueries 0
scalar FogNoLB.fog[45].dispatcher probeAnswers 0
scalar FogNoLB.fog[45].dispatcher droppedJobsSLA 0
scalar FogNoLB.fog[45].dispatcher jobs_class_1 518020
scalar FogNoLB.fog[45].dispatcher localJobs_class_1 518020
scalar FogNoLB.fog[45].server[0] rho 0.79890882968903
scalar FogNoLB.fog[45].server[0] congestionRatio 0
scalar FogNoLB.fog[45].server[0] totalJobs 518020
scalar FogNoLB.fog[45].server[0] droppedJobsQueue 748
scalar FogNoLB.fog[45].server[0] droppedJobsTimout 3988
scalar FogNoLB.fog[45].server[0] droppedJobsSLA 0
scalar FogNoLB.fog[45].server[0] droppedJobsTotal 4736
scalar FogNoLB.fog[46].dispatcher localJobs 516771
scalar FogNoLB.fog[46].dispatcher remoteJobs 0
scalar FogNoLB.fog[46].dispatcher probeQueries 0
scalar FogNoLB.fog[46].dispatcher probeAnswers 0
scalar FogNoLB.fog[46].dispatcher droppedJobsSLA 0
scalar FogNoLB.fog[46].dispatcher jobs_class_1 516771
scalar FogNoLB.fog[46].dispatcher localJobs_class_1 516771
scalar FogNoLB.fog[46].server[0] rho 0.79715114831924
scalar FogNoLB.fog[46].server[0] congestionRatio 0
scalar FogNoLB.fog[46].server[0] totalJobs 516771
scalar FogNoLB.fog[46].server[0] droppedJobsQueue 676
scalar FogNoLB.fog[46].server[0] droppedJobsTimout 3720
scalar FogNoLB.fog[46].server[0] droppedJobsSLA 0
scalar FogNoLB.fog[46].server[0] droppedJobsTotal 4396
scalar FogNoLB.fog[47].dispatcher localJobs 516523
scalar FogNoLB.fog[47].dispatcher remoteJobs 0
scalar FogNoLB.fog[47].dispatcher probeQueries 0
scalar FogNoLB.fog[47].dispatcher probeAnswers 0
scalar FogNoLB.fog[47].dispatcher droppedJobsSLA 0
scalar FogNoLB.fog[47].dispatcher jobs_class_1 516523
scalar FogNoLB.fog[47].dispatcher localJobs_class_1 516523
scalar FogNoLB.fog[47].server[0] rho 0.7968538403511
scalar FogNoLB.fog[47].server[0] congestionRatio 0
scalar FogNoLB.fog[47].server[0] totalJobs 516523
scalar FogNoLB.fog[47].server[0] droppedJobsQueue 668
scalar FogNoLB.fog[47].server[0] droppedJobsTimout 3527
scalar FogNoLB.fog[47].server[0] droppedJobsSLA 0
scalar FogNoLB.fog[47].server[0] droppedJobsTotal 4195
scalar FogNoLB.fog[48].dispatcher localJobs 518123
scalar FogNoLB.fog[48].dispatcher remoteJobs 0
scalar FogNoLB.fog[48].dispatcher probeQueries 0
scalar FogNoLB.fog[48].dispatcher probeAnswers 0
scalar FogNoLB.fog[48].dispatcher droppedJobsSLA 0
scalar FogNoLB.fog[48].dispatcher jobs_class_1 518123
scalar FogNoLB.fog[48].dispatcher localJobs_class_1 518123
scalar FogNoLB.fog[48].server[0] rho 0.79916059970856
scalar FogNoLB.fog[48].server[0] congestionRatio 0
scalar FogNoLB.fog[48].server[0] totalJobs 518123
scalar FogNoLB.fog[48].server[0] droppedJobsQueue 707
scalar FogNoLB.fog[48].server[0] droppedJobsTimout 3918
scalar FogNoLB.fog[48].server[0] droppedJobsSLA 0
scalar FogNoLB.fog[48].server[0] droppedJobsTotal 4625
scalar FogNoLB.fog[49].dispatcher localJobs 516858
scalar FogNoLB.fog[49].dispatcher remoteJobs 0
scalar FogNoLB.fog[49].dispatcher probeQueries 0
scalar FogNoLB.fog[49].dispatcher probeAnswers 0
scalar FogNoLB.fog[49].dispatcher droppedJobsSLA 0
scalar FogNoLB.fog[49].dispatcher jobs_class_1 516858
scalar FogNoLB.fog[49].dispatcher localJobs_class_1 516858
scalar FogNoLB.fog[49].server[0] rho 0.79737889766693
scalar FogNoLB.fog[49].server[0] congestionRatio 0
scalar FogNoLB.fog[49].server[0] totalJobs 516858
scalar FogNoLB.fog[49].server[0] droppedJobsQueue 650
scalar FogNoLB.fog[49].server[0] droppedJobsTimout 3491
scalar FogNoLB.fog[49].server[0] droppedJobsSLA 0
scalar FogNoLB.fog[49].server[0] droppedJobsTotal 4141
scalar FogNoLB.fog[50].dispatcher localJobs 516923
scalar FogNoLB.fog[50].dispatcher remoteJobs 0
scalar FogNoLB.fog[50].dispatcher probeQueries 0
scalar FogNoLB.fog[50].dispatcher probeAnswers 0
scalar FogNoLB.fog[50].dispatcher droppedJobsSLA 0
scalar FogNoLB.fog[50].dispatcher jobs_class_1 516923
scalar FogNoLB.fog[50].dispatcher localJobs_class_1 516923
scalar FogNoLB.fog[50].server[0] rho 0.7974534034729
scalar FogNoLB.fog[50].server[0] congestionRatio 0
scalar FogNoLB.fog[50].server[0] totalJobs 516923
scalar FogNoLB.fog[50].server[0] droppedJobsQueue 629
scalar FogNoLB.fog[50].server[0] droppedJobsTimout 3605
scalar FogNoLB.fog[50].server[0] droppedJobsSLA 0
scalar FogNoLB.fog[50].server[0] droppedJobsTotal 4234
scalar FogNoLB.fog[51].dispatcher localJobs 517001
scalar FogNoLB.fog[51].dispatcher remoteJobs 0
scalar FogNoLB.fog[51].dispatcher probeQueries 0
scalar FogNoLB.fog[51].dispatcher probeAnswers 0
scalar FogNoLB.fog[51].dispatcher droppedJobsSLA 0
scalar FogNoLB.fog[51].dispatcher jobs_class_1 517001
scalar FogNoLB.fog[51].dispatcher localJobs_class_1 517001
scalar FogNoLB.fog[51].server[0] rho 0.79769003391266
scalar FogNoLB.fog[51].server[0] congestionRatio 0
scalar FogNoLB.fog[51].server[0] totalJobs 517001
scalar FogNoLB.fog[51].server[0] droppedJobsQueue 586
scalar FogNoLB.fog[51].server[0] droppedJobsTimout 3272
scalar FogNoLB.fog[51].server[0] droppedJobsSLA 0
scalar FogNoLB.fog[51].server[0] droppedJobsTotal 3858
scalar FogNoLB.fog[52].dispatcher localJobs 517434
scalar FogNoLB.fog[52].dispatcher remoteJobs 0
scalar FogNoLB.fog[52].dispatcher probeQueries 0
scalar FogNoLB.fog[52].dispatcher probeAnswers 0
scalar FogNoLB.fog[52].dispatcher droppedJobsSLA 0
scalar FogNoLB.fog[52].dispatcher jobs_class_1 517434
scalar FogNoLB.fog[52].dispatcher localJobs_class_1 517434
scalar FogNoLB.fog[52].server[0] rho 0.79823577404022
scalar FogNoLB.fog[52].server[0] congestionRatio 0
scalar FogNoLB.fog[52].server[0] totalJobs 517434
scalar FogNoLB.fog[52].server[0] droppedJobsQueue 645
scalar FogNoLB.fog[52].server[0] droppedJobsTimout 3762
scalar FogNoLB.fog[52].server[0] droppedJobsSLA 0
scalar FogNoLB.fog[52].server[0] droppedJobsTotal 4407
scalar FogNoLB.fog[53].dispatcher localJobs 517857
scalar FogNoLB.fog[53].dispatcher remoteJobs 0
scalar FogNoLB.fog[53].dispatcher probeQueries 0
scalar FogNoLB.fog[53].dispatcher probeAnswers 0
scalar FogNoLB.fog[53].dispatcher droppedJobsSLA 0
scalar FogNoLB.fog[53].dispatcher jobs_class_1 517857
scalar FogNoLB.fog[53].dispatcher localJobs_class_1 517857
scalar FogNoLB.fog[53].server[0] rho 0.79889422655106
scalar FogNoLB.fog[53].server[0] congestionRatio 0
scalar FogNoLB.fog[53].server[0] totalJobs 517857
scalar FogNoLB.fog[53].server[0] droppedJobsQueue 658
scalar FogNoLB.fog[53].server[0] droppedJobsTimout 3637
scalar FogNoLB.fog[53].server[0] droppedJobsSLA 0
scalar FogNoLB.fog[53].server[0] droppedJobsTotal 4295
scalar FogNoLB.fog[54].dispatcher localJobs 516852
scalar FogNoLB.fog[54].dispatcher remoteJobs 0
scalar FogNoLB.fog[54].dispatcher probeQueries 0
scalar FogNoLB.fog[54].dispatcher probeAnswers 0
scalar FogNoLB.fog[54].dispatcher droppedJobsSLA 0
scalar FogNoLB.fog[54].dispatcher jobs_class_1 516852
scalar FogNoLB.fog[54].dispatcher localJobs_class_1 516852
scalar FogNoLB.fog[54].server[0] rho 0.79698902368546
scalar FogNoLB.fog[54].server[0] congestionRatio 0
scalar FogNoLB.fog[54].server[0] totalJobs 516852
scalar FogNoLB.fog[54].server[0] droppedJobsQueue 814
scalar FogNoLB.fog[54].server[0] droppedJobsTimout 4095
scalar FogNoLB.fog[54].server[0] droppedJobsSLA 0
scalar FogNoLB.fog[54].server[0] droppedJobsTotal 4909
scalar FogNoLB.fog[55].dispatcher localJobs 517848
scalar FogNoLB.fog[55].dispatcher remoteJobs 0
scalar FogNoLB.fog[55].dispatcher probeQueries 0
scalar FogNoLB.fog[55].dispatcher probeAnswers 0
scalar FogNoLB.fog[55].dispatcher droppedJobsSLA 0
scalar FogNoLB.fog[55].dispatcher jobs_class_1 517848
scalar FogNoLB.fog[55].dispatcher localJobs_class_1 517848
scalar FogNoLB.fog[55].server[0] rho 0.79883742332458
scalar FogNoLB.fog[55].server[0] congestionRatio 0
scalar FogNoLB.fog[55].server[0] totalJobs 517848
scalar FogNoLB.fog[55].server[0] droppedJobsQueue 677
scalar FogNoLB.fog[55].server[0] droppedJobsTimout 3718
scalar FogNoLB.fog[55].server[0] droppedJobsSLA 0
scalar FogNoLB.fog[55].server[0] droppedJobsTotal 4395
scalar FogNoLB.fog[56].dispatcher localJobs 518005
scalar FogNoLB.fog[56].dispatcher remoteJobs 0
scalar FogNoLB.fog[56].dispatcher probeQueries 0
scalar FogNoLB.fog[56].dispatcher probeAnswers 0
scalar FogNoLB.fog[56].dispatcher droppedJobsSLA 0
scalar FogNoLB.fog[56].dispatcher jobs_class_1 518005
scalar FogNoLB.fog[56].dispatcher localJobs_class_1 518005
scalar FogNoLB.fog[56].server[0] rho 0.79917645454407
scalar FogNoLB.fog[56].server[0] congestionRatio 0
scalar FogNoLB.fog[56].server[0] totalJobs 518005
scalar FogNoLB.fog[56].server[0] droppedJobsQueue 604
scalar FogNoLB.fog[56].server[0] droppedJobsTimout 3798
scalar FogNoLB.fog[56].server[0] droppedJobsSLA 0
scalar FogNoLB.fog[56].server[0] droppedJobsTotal 4402
scalar FogNoLB.fog[57].dispatcher localJobs 517783
scalar FogNoLB.fog[57].dispatcher remoteJobs 0
scalar FogNoLB.fog[57].dispatcher probeQueries 0
scalar FogNoLB.fog[57].dispatcher probeAnswers 0
scalar FogNoLB.fog[57].dispatcher droppedJobsSLA 0
scalar FogNoLB.fog[57].dispatcher jobs_class_1 517783
scalar FogNoLB.fog[57].dispatcher localJobs_class_1 517783
scalar FogNoLB.fog[57].server[0] rho 0.79877746105194
scalar FogNoLB.fog[57].server[0] congestionRatio 0
scalar FogNoLB.fog[57].server[0] totalJobs 517783
scalar FogNoLB.fog[57].server[0] droppedJobsQueue 628
scalar FogNoLB.fog[57].server[0] droppedJobsTimout 3709
scalar FogNoLB.fog[57].server[0] droppedJobsSLA 0
scalar FogNoLB.fog[57].server[0] droppedJobsTotal 4337
scalar FogNoLB.fog[58].dispatcher localJobs 516550
scalar FogNoLB.fog[58].dispatcher remoteJobs 0
scalar FogNoLB.fog[58].dispatcher probeQueries 0
scalar FogNoLB.fog[58].dispatcher probeAnswers 0
scalar FogNoLB.fog[58].dispatcher droppedJobsSLA 0
scalar FogNoLB.fog[58].dispatcher jobs_class_1 516550
scalar FogNoLB.fog[58].dispatcher localJobs_class_1 516550
scalar FogNoLB.fog[58].server[0] rho 0.79674446582794
scalar FogNoLB.fog[58].server[0] congestionRatio 0
scalar FogNoLB.fog[58].server[0] totalJobs 516550
scalar FogNoLB.fog[58].server[0] droppedJobsQueue 698
scalar FogNoLB.fog[58].server[0] droppedJobsTimout 3782
scalar FogNoLB.fog[58].server[0] droppedJobsSLA 0
scalar FogNoLB.fog[58].server[0] droppedJobsTotal 4480
scalar FogNoLB.fog[59].dispatcher localJobs 517292
scalar FogNoLB.fog[59].dispatcher remoteJobs 0
scalar FogNoLB.fog[59].dispatcher probeQueries 0
scalar FogNoLB.fog[59].dispatcher probeAnswers 0
scalar FogNoLB.fog[59].dispatcher droppedJobsSLA 0
scalar FogNoLB.fog[59].dispatcher jobs_class_1 517292
scalar FogNoLB.fog[59].dispatcher localJobs_class_1 517292
scalar FogNoLB.fog[59].server[0] rho 0.79809755086899
scalar FogNoLB.fog[59].server[0] congestionRatio 0
scalar FogNoLB.fog[59].server[0] totalJobs 517292
scalar FogNoLB.fog[59].server[0] droppedJobsQueue 623
scalar FogNoLB.fog[59].server[0] droppedJobsTimout 3459
scalar FogNoLB.fog[59].server[0] droppedJobsSLA 0
scalar FogNoLB.fog[59].server[0] droppedJobsTotal 4082
scalar FogNoLB.fog[60].dispatcher localJobs 517965
scalar FogNoLB.fog[60].dispatcher remoteJobs 0
scalar FogNoLB.fog[60].dispatcher probeQueries 0
scalar FogNoLB.fog[60].dispatcher probeAnswers 0
scalar FogNoLB.fog[60].dispatcher droppedJobsSLA 0
scalar FogNoLB.fog[60].dispatcher jobs_class_1 517965
scalar FogNoLB.fog[60].dispatcher localJobs_class_1 517965
scalar FogNoLB.fog[60].server[0] rho 0.7989319562912
scalar FogNoLB.fog[60].server[0] congestionRatio 0
scalar FogNoLB.fog[60].server[0] totalJobs 517965
scalar FogNoLB.fog[60].server[0] droppedJobsQueue 669
scalar FogNoLB.fog[60].server[0] droppedJobsTimout 4083
scalar FogNoLB.fog[60].server[0] droppedJobsSLA 0
scalar FogNoLB.fog[60].server[0] droppedJobsTotal 4752
scalar FogNoLB.fog[61].dispatcher localJobs 517409
scalar FogNoLB.fog[61].dispatcher remoteJobs 0
scalar FogNoLB.fog[61].dispatcher probeQueries 0
scalar FogNoLB.fog[61].dispatcher probeAnswers 0
scalar FogNoLB.fog[61].dispatcher droppedJobsSLA 0
scalar FogNoLB.fog[61].dispatcher jobs_class_1 517409
scalar FogNoLB.fog[61].dispatcher localJobs_class_1 517409
scalar FogNoLB.fog[61].server[0] rho 0.79811197519302
scalar FogNoLB.fog[61].server[0] congestionRatio 0
scalar FogNoLB.fog[61].server[0] totalJobs 517409
scalar FogNoLB.fog[61].server[0] droppedJobsQueue 665
scalar FogNoLB.fog[61].server[0] droppedJobsTimout 3750
scalar FogNoLB.fog[61].server[0] droppedJobsSLA 0
scalar FogNoLB.fog[61].server[0] droppedJobsTotal 4415
scalar FogNoLB.fog[62].dispatcher localJobs 517573
scalar FogNoLB.fog[62].dispatcher remoteJobs 0
scalar FogNoLB.fog[62].dispatcher probeQueries 0
scalar FogNoLB.fog[62].dispatcher probeAnswers 0
scalar FogNoLB.fog[62].dispatcher droppedJobsSLA 0
scalar FogNoLB.fog[62].dispatcher jobs_class_1 517573
scalar FogNoLB.fog[62].dispatcher localJobs_class_1 517573
scalar FogNoLB.fog[62].server[0] rho 0.7982502579689
scalar FogNoLB.fog[62].server[0] congestionRatio 0
scalar FogNoLB.fog[62].server[0] totalJobs 517573
scalar FogNoLB.fog[62].server[0] droppedJobsQueue 721
scalar FogNoLB.fog[62].server[0] droppedJobsTimout 3966
scalar FogNoLB.fog[62].server[0] droppedJobsSLA 0
scalar FogNoLB.fog[62].server[0] droppedJobsTotal 4687
scalar FogNoLB.fog[63].dispatcher localJobs 516463
scalar FogNoLB.fog[63].dispatcher remoteJobs 0
scalar FogNoLB.fog[63].dispatcher probeQueries 0
scalar FogNoLB.fog[63].dispatcher probeAnswers 0
scalar FogNoLB.fog[63].dispatcher droppedJobsSLA 0
scalar FogNoLB.fog[63].dispatcher jobs_class_1 516463
scalar FogNoLB.fog[63].dispatcher localJobs_class_1 516463
scalar FogNoLB.fog[63].server[0] rho 0.7968572974205
scalar FogNoLB.fog[63].server[0] congestionRatio 0
scalar FogNoLB.fog[63].server[0] totalJobs 516463
scalar FogNoLB.fog[63].server[0] droppedJobsQueue 558
scalar FogNoLB.fog[63].server[0] droppedJobsTimout 3553
scalar FogNoLB.fog[63].server[0] droppedJobsSLA 0
scalar FogNoLB.fog[63].server[0] droppedJobsTotal 4111
scalar FogNoLB.fog[64].dispatcher localJobs 518319
scalar FogNoLB.fog[64].dispatcher remoteJobs 0
scalar FogNoLB.fog[64].dispatcher probeQueries 0
scalar FogNoLB.fog[64].dispatcher probeAnswers 0
scalar FogNoLB.fog[64].dispatcher droppedJobsSLA 0
scalar FogNoLB.fog[64].dispatcher jobs_class_1 518319
scalar FogNoLB.fog[64].dispatcher localJobs_class_1 518319
scalar FogNoLB.fog[64].server[0] rho 0.79934978485107
scalar FogNoLB.fog[64].server[0] congestionRatio 0
scalar FogNoLB.fog[64].server[0] totalJobs 518319
scalar FogNoLB.fog[64].server[0] droppedJobsQueue 768
scalar FogNoLB.fog[64].server[0] droppedJobsTimout 4065
scalar FogNoLB.fog[64].server[0] droppedJobsSLA 0
scalar FogNoLB.fog[64].server[0] droppedJobsTotal 4833
scalar FogNoLB.fog[65].dispatcher localJobs 517961
scalar FogNoLB.fog[65].dispatcher remoteJobs 0
scalar FogNoLB.fog[65].dispatcher probeQueries 0
scalar FogNoLB.fog[65].dispatcher probeAnswers 0
scalar FogNoLB.fog[65].dispatcher droppedJobsSLA 0
scalar FogNoLB.fog[65].dispatcher jobs_class_1 517961
scalar FogNoLB.fog[65].dispatcher localJobs_class_1 517961
scalar FogNoLB.fog[65].server[0] rho 0.79895293712616
scalar FogNoLB.fog[65].server[0] congestionRatio 0
scalar FogNoLB.fog[65].server[0] totalJobs 517961
scalar FogNoLB.fog[65].server[0] droppedJobsQueue 689
scalar FogNoLB.fog[65].server[0] droppedJobsTimout 3954
scalar FogNoLB.fog[65].server[0] droppedJobsSLA 0
scalar FogNoLB.fog[65].server[0] droppedJobsTotal 4643
scalar FogNoLB.fog[66].dispatcher localJobs 518161
scalar FogNoLB.fog[66].dispatcher remoteJobs 0
scalar FogNoLB.fog[66].dispatcher probeQueries 0
scalar FogNoLB.fog[66].dispatcher probeAnswers 0
scalar FogNoLB.fog[66].dispatcher droppedJobsSLA 0
scalar FogNoLB.fog[66].dispatcher jobs_class_1 518161
scalar FogNoLB.fog[66].dispatcher localJobs_class_1 518161
scalar FogNoLB.fog[66].server[0] rho 0.79920279979706
scalar FogNoLB.fog[66].server[0] congestionRatio 0
scalar FogNoLB.fog[66].server[0] totalJobs 518161
scalar FogNoLB.fog[66].server[0] droppedJobsQueue 735
scalar FogNoLB.fog[66].server[0] droppedJobsTimout 3681
scalar FogNoLB.fog[66].server[0] droppedJobsSLA 0
scalar FogNoLB.fog[66].server[0] droppedJobsTotal 4416
scalar FogNoLB.fog[67].dispatcher localJobs 517410
scalar FogNoLB.fog[67].dispatcher remoteJobs 0
scalar FogNoLB.fog[67].dispatcher probeQueries 0
scalar FogNoLB.fog[67].dispatcher probeAnswers 0
scalar FogNoLB.fog[67].dispatcher droppedJobsSLA 0
scalar FogNoLB.fog[67].dispatcher jobs_class_1 517410
scalar FogNoLB.fog[67].dispatcher localJobs_class_1 517410
scalar FogNoLB.fog[67].server[0] rho 0.79809284210205
scalar FogNoLB.fog[67].server[0] congestionRatio 0
scalar FogNoLB.fog[67].server[0] totalJobs 517410
scalar FogNoLB.fog[67].server[0] droppedJobsQueue 684
scalar FogNoLB.fog[67].server[0] droppedJobsTimout 3901
scalar FogNoLB.fog[67].server[0] droppedJobsSLA 0
scalar FogNoLB.fog[67].server[0] droppedJobsTotal 4585
scalar FogNoLB.fog[68].dispatcher localJobs 518566
scalar FogNoLB.fog[68].dispatcher remoteJobs 0
scalar FogNoLB.fog[68].dispatcher probeQueries 0
scalar FogNoLB.fog[68].dispatcher probeAnswers 0
scalar FogNoLB.fog[68].dispatcher droppedJobsSLA 0
scalar FogNoLB.fog[68].dispatcher jobs_class_1 518566
scalar FogNoLB.fog[68].dispatcher localJobs_class_1 518566
scalar FogNoLB.fog[68].server[0] rho 0.79966431856155
scalar FogNoLB.fog[68].server[0] congestionRatio 0
scalar FogNoLB.fog[68].server[0] totalJobs 518566
scalar FogNoLB.fog[68].server[0] droppedJobsQueue 772
scalar FogNoLB.fog[68].server[0] droppedJobsTimout 4128
scalar FogNoLB.fog[68].server[0] droppedJobsSLA 0
scalar FogNoLB.fog[68].server[0] droppedJobsTotal 4900
scalar FogNoLB.fog[69].dispatcher localJobs 517155
scalar FogNoLB.fog[69].dispatcher remoteJobs 0
scalar FogNoLB.fog[69].dispatcher probeQueries 0
scalar FogNoLB.fog[69].dispatcher probeAnswers 0
scalar FogNoLB.fog[69].dispatcher droppedJobsSLA 0
scalar FogNoLB.fog[69].dispatcher jobs_class_1 517155
scalar FogNoLB.fog[69].dispatcher localJobs_class_1 517155
scalar FogNoLB.fog[69].server[0] rho 0.79757511615753
scalar FogNoLB.fog[69].server[0] congestionRatio 0
scalar FogNoLB.fog[69].server[0] totalJobs 517155
scalar FogNoLB.fog[69].server[0] droppedJobsQueue 764
scalar FogNoLB.fog[69].server[0] droppedJobsTimout 3813
scalar FogNoLB.fog[69].server[0] droppedJobsSLA 0
scalar FogNoLB.fog[69].server[0] droppedJobsTotal 4577
scalar FogNoLB.fog[70].dispatcher localJobs 516679
scalar FogNoLB.fog[70].dispatcher remoteJobs 0
scalar FogNoLB.fog[70].dispatcher probeQueries 0
scalar FogNoLB.fog[70].dispatcher probeAnswers 0
scalar FogNoLB.fog[70].dispatcher droppedJobsSLA 0
scalar FogNoLB.fog[70].dispatcher jobs_class_1 516679
scalar FogNoLB.fog[70].dispatcher localJobs_class_1 516679
scalar FogNoLB.fog[70].server[0] rho 0.79719221591949
scalar FogNoLB.fog[70].server[0] congestionRatio 0
scalar FogNoLB.fog[70].server[0] totalJobs 516679
scalar FogNoLB.fog[70].server[0] droppedJobsQueue 614
scalar FogNoLB.fog[70].server[0] droppedJobsTimout 3495
scalar FogNoLB.fog[70].server[0] droppedJobsSLA 0
scalar FogNoLB.fog[70].server[0] droppedJobsTotal 4109
scalar FogNoLB.fog[71].dispatcher localJobs 517187
scalar FogNoLB.fog[71].dispatcher remoteJobs 0
scalar FogNoLB.fog[71].dispatcher probeQueries 0
scalar FogNoLB.fog[71].dispatcher probeAnswers 0
scalar FogNoLB.fog[71].dispatcher droppedJobsSLA 0
scalar FogNoLB.fog[71].dispatcher jobs_class_1 517187
scalar FogNoLB.fog[71].dispatcher localJobs_class_1 517187
scalar FogNoLB.fog[71].server[0] rho 0.79771393537521
scalar FogNoLB.fog[71].server[0] congestionRatio 0
scalar FogNoLB.fog[71].server[0] totalJobs 517187
scalar FogNoLB.fog[71].server[0] droppedJobsQueue 686
scalar FogNoLB.fog[71].server[0] droppedJobsTimout 3892
scalar FogNoLB.fog[71].server[0] droppedJobsSLA 0
scalar FogNoLB.fog[71].server[0] droppedJobsTotal 4578
scalar FogNoLB.fog[72].dispatcher localJobs 516483
scalar FogNoLB.fog[72].dispatcher remoteJobs 0
scalar FogNoLB.fog[72].dispatcher probeQueries 0
scalar FogNoLB.fog[72].dispatcher probeAnswers 0
scalar FogNoLB.fog[72].dispatcher droppedJobsSLA 0
scalar FogNoLB.fog[72].dispatcher jobs_class_1 516483
scalar FogNoLB.fog[72].dispatcher localJobs_class_1 516483
scalar FogNoLB.fog[72].server[0] rho 0.79663437604904
scalar FogNoLB.fog[72].server[0] congestionRatio 0
scalar FogNoLB.fog[72].server[0] totalJobs 516483
scalar FogNoLB.fog[72].server[0] droppedJobsQueue 697
scalar FogNoLB.fog[72].server[0] droppedJobsTimout 3829
scalar FogNoLB.fog[72].server[0] droppedJobsSLA 0
scalar FogNoLB.fog[72].server[0] droppedJobsTotal 4526
scalar FogNoLB.fog[73].dispatcher localJobs 517766
scalar FogNoLB.fog[73].dispatcher remoteJobs 0
scalar FogNoLB.fog[73].dispatcher probeQueries 0
scalar FogNoLB.fog[73].dispatcher probeAnswers 0
scalar FogNoLB.fog[73].dispatcher droppedJobsSLA 0
scalar FogNoLB.fog[73].dispatcher jobs_class_1 517766
scalar FogNoLB.fog[73].dispatcher localJobs_class_1 517766
scalar FogNoLB.fog[73].server[0] rho 0.79848742485046
scalar FogNoLB.fog[73].server[0] congestionRatio 0
scalar FogNoLB.fog[73].server[0] totalJobs 517766
scalar FogNoLB.fog[73].server[0] droppedJobsQueue 763
scalar FogNoLB.fog[73].server[0] droppedJobsTimout 4041
scalar FogNoLB.fog[73].server[0] droppedJobsSLA 0
scalar FogNoLB.fog[73].server[0] droppedJobsTotal 4804
scalar FogNoLB.fog[74].dispatcher localJobs 517433
scalar FogNoLB.fog[74].dispatcher remoteJobs 0
scalar FogNoLB.fog[74].dispatcher probeQueries 0
scalar FogNoLB.fog[74].dispatcher probeAnswers 0
scalar FogNoLB.fog[74].dispatcher droppedJobsSLA 0
scalar FogNoLB.fog[74].dispatcher jobs_class_1 517433
scalar FogNoLB.fog[74].dispatcher localJobs_class_1 517433
scalar FogNoLB.fog[74].server[0] rho 0.798195540905
scalar FogNoLB.fog[74].server[0] congestionRatio 0
scalar FogNoLB.fog[74].server[0] totalJobs 517433
scalar FogNoLB.fog[74].server[0] droppedJobsQueue 674
scalar FogNoLB.fog[74].server[0] droppedJobsTimout 3857
scalar FogNoLB.fog[74].server[0] droppedJobsSLA 0
scalar FogNoLB.fog[74].server[0] droppedJobsTotal 4531
scalar FogNoLB.fog[75].dispatcher localJobs 516972
scalar FogNoLB.fog[75].dispatcher remoteJobs 0
scalar FogNoLB.fog[75].dispatcher probeQueries 0
scalar FogNoLB.fog[75].dispatcher probeAnswers 0
scalar FogNoLB.fog[75].dispatcher droppedJobsSLA 0
scalar FogNoLB.fog[75].dispatcher jobs_class_1 516972
scalar FogNoLB.fog[75].dispatcher localJobs_class_1 516972
scalar FogNoLB.fog[75].server[0] rho 0.79738968610764
scalar FogNoLB.fog[75].server[0] congestionRatio 0
scalar FogNoLB.fog[75].server[0] totalJobs 516972
scalar FogNoLB.fog[75].server[0] droppedJobsQueue 705
scalar FogNoLB.fog[75].server[0] droppedJobsTimout 3922
scalar FogNoLB.fog[75].server[0] droppedJobsSLA 0
scalar FogNoLB.fog[75].server[0] droppedJobsTotal 4627
scalar FogNoLB.fog[76].dispatcher localJobs 518553
scalar FogNoLB.fog[76].dispatcher remoteJobs 0
scalar FogNoLB.fog[76].dispatcher probeQueries 0
scalar FogNoLB.fog[76].dispatcher probeAnswers 0
scalar FogNoLB.fog[76].dispatcher droppedJobsSLA 0
scalar FogNoLB.fog[76].dispatcher jobs_class_1 518553
scalar FogNoLB.fog[76].dispatcher localJobs_class_1 518553
scalar FogNoLB.fog[76].server[0] rho 0.79986733198166
scalar FogNoLB.fog[76].server[0] congestionRatio 0
scalar FogNoLB.fog[76].server[0] totalJobs 518553
scalar FogNoLB.fog[76].server[0] droppedJobsQueue 679
scalar FogNoLB.fog[76].server[0] droppedJobsTimout 3811
scalar FogNoLB.fog[76].server[0] droppedJobsSLA 0
scalar FogNoLB.fog[76].server[0] droppedJobsTotal 4490
scalar FogNoLB.fog[77].dispatcher localJobs 516673
scalar FogNoLB.fog[77].dispatcher remoteJobs 0
scalar FogNoLB.fog[77].dispatcher probeQueries 0
scalar FogNoLB.fog[77].dispatcher probeAnswers 0
scalar FogNoLB.fog[77].dispatcher droppedJobsSLA 0
scalar FogNoLB.fog[77].dispatcher jobs_class_1 516673
scalar FogNoLB.fog[77].dispatcher localJobs_class_1 516673
scalar FogNoLB.fog[77].server[0] rho 0.79692900180817
scalar FogNoLB.fog[77].server[0] congestionRatio 0
scalar FogNoLB.fog[77].server[0] totalJobs 516673
scalar FogNoLB.fog[77].server[0] droppedJobsQueue 693
scalar FogNoLB.fog[77].server[0] droppedJobsTimout 3879
scalar FogNoLB.fog[77].server[0] droppedJobsSLA 0
scalar FogNoLB.fog[77].server[0] droppedJobsTotal 4572
scalar FogNoLB.fog[78].dispatcher localJobs 517558
scalar FogNoLB.fog[78].dispatcher remoteJobs 0
scalar FogNoLB.fog[78].dispatcher probeQueries 0
scalar FogNoLB.fog[78].dispatcher probeAnswers 0
scalar FogNoLB.fog[78].dispatcher droppedJobsSLA 0
scalar FogNoLB.fog[78].dispatcher jobs_class_1 517558
scalar FogNoLB.fog[78].dispatcher localJobs_class_1 517558
scalar FogNoLB.fog[78].server[0] rho 0.7983775138855
scalar FogNoLB.fog[78].server[0] congestionRatio 0
scalar FogNoLB.fog[78].server[0] totalJobs 517558
scalar FogNoLB.fog[78].server[0] droppedJobsQueue 674
scalar FogNoLB.fog[78].server[0] droppedJobsTimout 3642
scalar FogNoLB.fog[78].server[0] droppedJobsSLA 0
scalar FogNoLB.fog[78].server[0] droppedJobsTotal 4316
scalar FogNoLB.fog[79].dispatcher localJobs 516782
scalar FogNoLB.fog[79].dispatcher remoteJobs 0
scalar FogNoLB.fog[79].dispatcher probeQueries 0
scalar FogNoLB.fog[79].dispatcher probeAnswers 0
scalar FogNoLB.fog[79].dispatcher droppedJobsSLA 0
scalar FogNoLB.fog[79].dispatcher jobs_class_1 516782
scalar FogNoLB.fog[79].dispatcher localJobs_class_1 516782
scalar FogNoLB.fog[79].server[0] rho 0.79717606306076
scalar FogNoLB.fog[79].server[0] congestionRatio 0
scalar FogNoLB.fog[79].server[0] totalJobs 516782
scalar FogNoLB.fog[79].server[0] droppedJobsQueue 666
scalar FogNoLB.fog[79].server[0] droppedJobsTimout 3641
scalar FogNoLB.fog[79].server[0] droppedJobsSLA 0
scalar FogNoLB.fog[79].server[0] droppedJobsTotal 4307
scalar FogNoLB.fog[80].dispatcher localJobs 517951
scalar FogNoLB.fog[80].dispatcher remoteJobs 0
scalar FogNoLB.fog[80].dispatcher probeQueries 0
scalar FogNoLB.fog[80].dispatcher probeAnswers 0
scalar FogNoLB.fog[80].dispatcher droppedJobsSLA 0
scalar FogNoLB.fog[80].dispatcher jobs_class_1 517951
scalar FogNoLB.fog[80].dispatcher localJobs_class_1 517951
scalar FogNoLB.fog[80].server[0] rho 0.79901105165482
scalar FogNoLB.fog[80].server[0] congestionRatio 0
scalar FogNoLB.fog[80].server[0] totalJobs 517951
scalar FogNoLB.fog[80].server[0] droppedJobsQueue 654
scalar FogNoLB.fog[80].server[0] droppedJobsTimout 3596
scalar FogNoLB.fog[80].server[0] droppedJobsSLA 0
scalar FogNoLB.fog[80].server[0] droppedJobsTotal 4250
scalar FogNoLB.fog[81].dispatcher localJobs 517026
scalar FogNoLB.fog[81].dispatcher remoteJobs 0
scalar FogNoLB.fog[81].dispatcher probeQueries 0
scalar FogNoLB.fog[81].dispatcher probeAnswers 0
scalar FogNoLB.fog[81].dispatcher droppedJobsSLA 0
scalar FogNoLB.fog[81].dispatcher jobs_class_1 517026
scalar FogNoLB.fog[81].dispatcher localJobs_class_1 517026
scalar FogNoLB.fog[81].server[0] rho 0.79747527837753
scalar FogNoLB.fog[81].server[0] congestionRatio 0
scalar FogNoLB.fog[81].server[0] totalJobs 517026
scalar FogNoLB.fog[81].server[0] droppedJobsQueue 704
scalar FogNoLB.fog[81].server[0] droppedJobsTimout 3772
scalar FogNoLB.fog[81].server[0] droppedJobsSLA 0
scalar FogNoLB.fog[81].server[0] droppedJobsTotal 4476
scalar FogNoLB.fog[82].dispatcher localJobs 516857
scalar FogNoLB.fog[82].dispatcher remoteJobs 0
scalar FogNoLB.fog[82].dispatcher probeQueries 0
scalar FogNoLB.fog[82].dispatcher probeAnswers 0
scalar FogNoLB.fog[82].dispatcher droppedJobsSLA 0
scalar FogNoLB.fog[82].dispatcher jobs_class_1 516857
scalar FogNoLB.fog[82].dispatcher localJobs_class_1 516857
scalar FogNoLB.fog[82].server[0] rho 0.79721647500992
scalar FogNoLB.fog[82].server[0] congestionRatio 0
scalar FogNoLB.fog[82].server[0] totalJobs 516857
scalar FogNoLB.fog[82].server[0] droppedJobsQueue 673
scalar FogNoLB.fog[82].server[0] droppedJobsTimout 3766
scalar FogNoLB.fog[82].server[0] droppedJobsSLA 0
scalar FogNoLB.fog[82].server[0] droppedJobsTotal 4439
scalar FogNoLB.fog[83].dispatcher localJobs 517155
scalar FogNoLB.fog[83].dispatcher remoteJobs 0
scalar FogNoLB.fog[83].dispatcher probeQueries 0
scalar FogNoLB.fog[83].dispatcher probeAnswers 0
scalar FogNoLB.fog[83].dispatcher droppedJobsSLA 0
scalar FogNoLB.fog[83].dispatcher jobs_class_1 517155
scalar FogNoLB.fog[83].dispatcher localJobs_class_1 517155
scalar FogNoLB.fog[83].server[0] rho 0.79791682958603
scalar FogNoLB.fog[83].server[0] congestionRatio 0
scalar FogNoLB.fog[83].server[0] totalJobs 517155
scalar FogNoLB.fog[83].server[0] droppedJobsQueue 621
scalar FogNoLB.fog[83].server[0] droppedJobsTimout 3414
scalar FogNoLB.fog[83].server[0] droppedJobsSLA 0
scalar FogNoLB.fog[83].server[0] droppedJobsTotal 4035
scalar FogNoLB.fog[84].dispatcher localJobs 517506
scalar FogNoLB.fog[84].dispatcher remoteJobs 0
scalar FogNoLB.fog[84].dispatcher probeQueries 0
scalar FogNoLB.fog[84].dispatcher probeAnswers 0
scalar FogNoLB.fog[84].dispatcher droppedJobsSLA 0
scalar FogNoLB.fog[84].dispatcher jobs_class_1 517506
scalar FogNoLB.fog[84].dispatcher localJobs_class_1 517506
scalar FogNoLB.fog[84].server[0] rho 0.79824191331863
scalar FogNoLB.fog[84].server[0] congestionRatio 0
scalar FogNoLB.fog[84].server[0] totalJobs 517506
scalar FogNoLB.fog[84].server[0] droppedJobsQueue 699
scalar FogNoLB.fog[84].server[0] droppedJobsTimout 3943
scalar FogNoLB.fog[84].server[0] droppedJobsSLA 0
scalar FogNoLB.fog[84].server[0] droppedJobsTotal 4642
scalar FogNoLB.fog[85].dispatcher localJobs 517745
scalar FogNoLB.fog[85].dispatcher remoteJobs 0
scalar FogNoLB.fog[85].dispatcher probeQueries 0
scalar FogNoLB.fog[85].dispatcher probeAnswers 0
scalar FogNoLB.fog[85].dispatcher droppedJobsSLA 0
scalar FogNoLB.fog[85].dispatcher jobs_class_1 517745
scalar FogNoLB.fog[85].dispatcher localJobs_class_1 517745
scalar FogNoLB.fog[85].server[0] rho 0.79845345020294
scalar FogNoLB.fog[85].server[0] congestionRatio 0
scalar FogNoLB.fog[85].server[0] totalJobs 517745
scalar FogNoLB.fog[85].server[0] droppedJobsQueue 761
scalar FogNoLB.fog[85].server[0] droppedJobsTimout 3874
scalar FogNoLB.fog[85].server[0] droppedJobsSLA 0
scalar FogNoLB.fog[85].server[0] droppedJobsTotal 4635
scalar FogNoLB.fog[86].dispatcher localJobs 517212
scalar FogNoLB.fog[86].dispatcher remoteJobs 0
scalar FogNoLB.fog[86].dispatcher probeQueries 0
scalar FogNoLB.fog[86].dispatcher probeAnswers 0
scalar FogNoLB.fog[86].dispatcher droppedJobsSLA 0
scalar FogNoLB.fog[86].dispatcher jobs_class_1 517212
scalar FogNoLB.fog[86].dispatcher localJobs_class_1 517212
scalar FogNoLB.fog[86].server[0] rho 0.79773432016373
scalar FogNoLB.fog[86].server[0] congestionRatio 0
scalar FogNoLB.fog[86].server[0] totalJobs 517212
scalar FogNoLB.fog[86].server[0] droppedJobsQueue 749
scalar FogNoLB.fog[86].server[0] droppedJobsTimout 3754
scalar FogNoLB.fog[86].server[0] droppedJobsSLA 0
scalar FogNoLB.fog[86].server[0] droppedJobsTotal 4503
scalar FogNoLB.fog[87].dispatcher localJobs 517973
scalar FogNoLB.fog[87].dispatcher remoteJobs 0
scalar FogNoLB.fog[87].dispatcher probeQueries 0
scalar FogNoLB.fog[87].dispatcher probeAnswers 0
scalar FogNoLB.fog[87].dispatcher droppedJobsSLA 0
scalar FogNoLB.fog[87].dispatcher jobs_class_1 517973
scalar FogNoLB.fog[87].dispatcher localJobs_class_1 517973
scalar FogNoLB.fog[87].server[0] rho 0.79904323816299
scalar FogNoLB.fog[87].server[0] congestionRatio 0
scalar FogNoLB.fog[87].server[0] totalJobs 517973
scalar FogNoLB.fog[87].server[0] droppedJobsQueue 639
scalar FogNoLB.fog[87].server[0] droppedJobsTimout 3899
scalar FogNoLB.fog[87].server[0] droppedJobsSLA 0
scalar FogNoLB.fog[87].server[0] droppedJobsTotal 4538
scalar FogNoLB.fog[88].dispatcher localJobs 516420
scalar FogNoLB.fog[88].dispatcher remoteJobs 0
scalar FogNoLB.fog[88].dispatcher probeQueries 0
scalar FogNoLB.fog[88].dispatcher probeAnswers 0
scalar FogNoLB.fog[88].dispatcher droppedJobsSLA 0
scalar FogNoLB.fog[88].dispatcher jobs_class_1 516420
scalar FogNoLB.fog[88].dispatcher localJobs_class_1 516420
scalar FogNoLB.fog[88].server[0] rho 0.79674857854843
scalar FogNoLB.fog[88].server[0] congestionRatio 0
scalar FogNoLB.fog[88].server[0] totalJobs 516420
scalar FogNoLB.fog[88].server[0] droppedJobsQueue 606
scalar FogNoLB.fog[88].server[0] droppedJobsTimout 3666
scalar FogNoLB.fog[88].server[0] droppedJobsSLA 0
scalar FogNoLB.fog[88].server[0] droppedJobsTotal 4272
scalar FogNoLB.fog[89].dispatcher localJobs 516346
scalar FogNoLB.fog[89].dispatcher remoteJobs 0
scalar FogNoLB.fog[89].dispatcher probeQueries 0
scalar FogNoLB.fog[89].dispatcher probeAnswers 0
scalar FogNoLB.fog[89].dispatcher droppedJobsSLA 0
scalar FogNoLB.fog[89].dispatcher jobs_class_1 516346
scalar FogNoLB.fog[89].dispatcher localJobs_class_1 516346
scalar FogNoLB.fog[89].server[0] rho 0.79630833864212
scalar FogNoLB.fog[89].server[0] congestionRatio 0
scalar FogNoLB.fog[89].server[0] totalJobs 516346
scalar FogNoLB.fog[89].server[0] droppedJobsQueue 755
scalar FogNoLB.fog[89].server[0] droppedJobsTimout 3846
scalar FogNoLB.fog[89].server[0] droppedJobsSLA 0
scalar FogNoLB.fog[89].server[0] droppedJobsTotal 4601
scalar FogNoLB.fog[90].dispatcher localJobs 516759
scalar FogNoLB.fog[90].dispatcher remoteJobs 0
scalar FogNoLB.fog[90].dispatcher probeQueries 0
scalar FogNoLB.fog[90].dispatcher probeAnswers 0
scalar FogNoLB.fog[90].dispatcher droppedJobsSLA 0
scalar FogNoLB.fog[90].dispatcher jobs_class_1 516759
scalar FogNoLB.fog[90].dispatcher localJobs_class_1 516759
scalar FogNoLB.fog[90].server[0] rho 0.79700487852097
scalar FogNoLB.fog[90].server[0] congestionRatio 0
scalar FogNoLB.fog[90].server[0] totalJobs 516759
scalar FogNoLB.fog[90].server[0] droppedJobsQueue 752
scalar FogNoLB.fog[90].server[0] droppedJobsTimout 3752
scalar FogNoLB.fog[90].server[0] droppedJobsSLA 0
scalar FogNoLB.fog[90].server[0] droppedJobsTotal 4504
scalar FogNoLB.fog[91].dispatcher localJobs 517962
scalar FogNoLB.fog[91].dispatcher remoteJobs 0
scalar FogNoLB.fog[91].dispatcher probeQueries 0
scalar FogNoLB.fog[91].dispatcher probeAnswers 0
scalar FogNoLB.fog[91].dispatcher droppedJobsSLA 0
scalar FogNoLB.fog[91].dispatcher jobs_class_1 517962
scalar FogNoLB.fog[91].dispatcher localJobs_class_1 517962
scalar FogNoLB.fog[91].server[0] rho 0.79891270399094
scalar FogNoLB.fog[91].server[0] congestionRatio 0
scalar FogNoLB.fog[91].server[0] totalJobs 517962
scalar FogNoLB.fog[91].server[0] droppedJobsQueue 694
scalar FogNoLB.fog[91].server[0] droppedJobsTimout 3671
scalar FogNoLB.fog[91].server[0] droppedJobsSLA 0
scalar FogNoLB.fog[91].server[0] droppedJobsTotal 4365
scalar FogNoLB.fog[92].dispatcher localJobs 518162
scalar FogNoLB.fog[92].dispatcher remoteJobs 0
scalar FogNoLB.fog[92].dispatcher probeQueries 0
scalar FogNoLB.fog[92].dispatcher probeAnswers 0
scalar FogNoLB.fog[92].dispatcher droppedJobsSLA 0
scalar FogNoLB.fog[92].dispatcher jobs_class_1 518162
scalar FogNoLB.fog[92].dispatcher localJobs_class_1 518162
scalar FogNoLB.fog[92].server[0] rho 0.79955661296844
scalar FogNoLB.fog[92].server[0] congestionRatio 0
scalar FogNoLB.fog[92].server[0] totalJobs 518162
scalar FogNoLB.fog[92].server[0] droppedJobsQueue 577
scalar FogNoLB.fog[92].server[0] droppedJobsTimout 3369
scalar FogNoLB.fog[92].server[0] droppedJobsSLA 0
scalar FogNoLB.fog[92].server[0] droppedJobsTotal 3946
scalar FogNoLB.fog[93].dispatcher localJobs 518112
scalar FogNoLB.fog[93].dispatcher remoteJobs 0
scalar FogNoLB.fog[93].dispatcher probeQueries 0
scalar FogNoLB.fog[93].dispatcher probeAnswers 0
scalar FogNoLB.fog[93].dispatcher droppedJobsSLA 0
scalar FogNoLB.fog[93].dispatcher jobs_class_1 518112
scalar FogNoLB.fog[93].dispatcher localJobs_class_1 518112
scalar FogNoLB.fog[93].server[0] rho 0.79917180538177
scalar FogNoLB.fog[93].server[0] congestionRatio 0
scalar FogNoLB.fog[93].server[0] totalJobs 518112
scalar FogNoLB.fog[93].server[0] droppedJobsQueue 690
scalar FogNoLB.fog[93].server[0] droppedJobsTimout 3899
scalar FogNoLB.fog[93].server[0] droppedJobsSLA 0
scalar FogNoLB.fog[93].server[0] droppedJobsTotal 4589
scalar FogNoLB.fog[94].dispatcher localJobs 517104
scalar FogNoLB.fog[94].dispatcher remoteJobs 0
scalar FogNoLB.fog[94].dispatcher probeQueries 0
scalar FogNoLB.fog[94].dispatcher probeAnswers 0
scalar FogNoLB.fog[94].dispatcher droppedJobsSLA 0
scalar FogNoLB.fog[94].dispatcher jobs_class_1 517104
scalar FogNoLB.fog[94].dispatcher localJobs_class_1 517104
scalar FogNoLB.fog[94].server[0] rho 0.79777699708939
scalar FogNoLB.fog[94].server[0] congestionRatio 0
scalar FogNoLB.fog[94].server[0] totalJobs 517104
scalar FogNoLB.fog[94].server[0] droppedJobsQueue 628
scalar FogNoLB.fog[94].server[0] droppedJobsTimout 3707
scalar FogNoLB.fog[94].server[0] droppedJobsSLA 0
scalar FogNoLB.fog[94].server[0] droppedJobsTotal 4335
scalar FogNoLB.fog[95].dispatcher localJobs 517286
scalar FogNoLB.fog[95].dispatcher remoteJobs 0
scalar FogNoLB.fog[95].dispatcher probeQueries 0
scalar FogNoLB.fog[95].dispatcher probeAnswers 0
scalar FogNoLB.fog[95].dispatcher droppedJobsSLA 0
scalar FogNoLB.fog[95].dispatcher jobs_class_1 517286
scalar FogNoLB.fog[95].dispatcher localJobs_class_1 517286
scalar FogNoLB.fog[95].server[0] rho 0.79788482189178
scalar FogNoLB.fog[95].server[0] congestionRatio 0
scalar FogNoLB.fog[95].server[0] totalJobs 517286
scalar FogNoLB.fog[95].server[0] droppedJobsQueue 709
scalar FogNoLB.fog[95].server[0] droppedJobsTimout 3761
scalar FogNoLB.fog[95].server[0] droppedJobsSLA 0
scalar FogNoLB.fog[95].server[0] droppedJobsTotal 4470
scalar FogNoLB.fog[96].dispatcher localJobs 516132
scalar FogNoLB.fog[96].dispatcher remoteJobs 0
scalar FogNoLB.fog[96].dispatcher probeQueries 0
scalar FogNoLB.fog[96].dispatcher probeAnswers 0
scalar FogNoLB.fog[96].dispatcher droppedJobsSLA 0
scalar FogNoLB.fog[96].dispatcher jobs_class_1 516132
scalar FogNoLB.fog[96].dispatcher localJobs_class_1 516132
scalar FogNoLB.fog[96].server[0] rho 0.79640001058578
scalar FogNoLB.fog[96].server[0] congestionRatio 0
scalar FogNoLB.fog[96].server[0] totalJobs 516132
scalar FogNoLB.fog[96].server[0] droppedJobsQueue 571
scalar FogNoLB.fog[96].server[0] droppedJobsTimout 3429
scalar FogNoLB.fog[96].server[0] droppedJobsSLA 0
scalar FogNoLB.fog[96].server[0] droppedJobsTotal 4000
scalar FogNoLB.fog[97].dispatcher localJobs 519487
scalar FogNoLB.fog[97].dispatcher remoteJobs 0
scalar FogNoLB.fog[97].dispatcher probeQueries 0
scalar FogNoLB.fog[97].dispatcher probeAnswers 0
scalar FogNoLB.fog[97].dispatcher droppedJobsSLA 0
scalar FogNoLB.fog[97].dispatcher jobs_class_1 519487
scalar FogNoLB.fog[97].dispatcher localJobs_class_1 519487
scalar FogNoLB.fog[97].server[0] rho 0.80120122432709
scalar FogNoLB.fog[97].server[0] congestionRatio 0
scalar FogNoLB.fog[97].server[0] totalJobs 519487
scalar FogNoLB.fog[97].server[0] droppedJobsQueue 722
scalar FogNoLB.fog[97].server[0] droppedJobsTimout 3994
scalar FogNoLB.fog[97].server[0] droppedJobsSLA 0
scalar FogNoLB.fog[97].server[0] droppedJobsTotal 4716
scalar FogNoLB.fog[98].dispatcher localJobs 517096
scalar FogNoLB.fog[98].dispatcher remoteJobs 0
scalar FogNoLB.fog[98].dispatcher probeQueries 0
scalar FogNoLB.fog[98].dispatcher probeAnswers 0
scalar FogNoLB.fog[98].dispatcher droppedJobsSLA 0
scalar FogNoLB.fog[98].dispatcher jobs_class_1 517096
scalar FogNoLB.fog[98].dispatcher localJobs_class_1 517096
scalar FogNoLB.fog[98].server[0] rho 0.7975332736969
scalar FogNoLB.fog[98].server[0] congestionRatio 0
scalar FogNoLB.fog[98].server[0] totalJobs 517096
scalar FogNoLB.fog[98].server[0] droppedJobsQueue 688
scalar FogNoLB.fog[98].server[0] droppedJobsTimout 3915
scalar FogNoLB.fog[98].server[0] droppedJobsSLA 0
scalar FogNoLB.fog[98].server[0] droppedJobsTotal 4603
scalar FogNoLB.fog[99].dispatcher localJobs 517841
scalar FogNoLB.fog[99].dispatcher remoteJobs 0
scalar FogNoLB.fog[99].dispatcher probeQueries 0
scalar FogNoLB.fog[99].dispatcher probeAnswers 0
scalar FogNoLB.fog[99].dispatcher droppedJobsSLA 0
scalar FogNoLB.fog[99].dispatcher jobs_class_1 517841
scalar FogNoLB.fog[99].dispatcher localJobs_class_1 517841
scalar FogNoLB.fog[99].server[0] rho 0.79884839057922
scalar FogNoLB.fog[99].server[0] congestionRatio 0
scalar FogNoLB.fog[99].server[0] totalJobs 517841
scalar FogNoLB.fog[99].server[0] droppedJobsQueue 676
scalar FogNoLB.fog[99].server[0] droppedJobsTimout 3670
scalar FogNoLB.fog[99].server[0] droppedJobsSLA 0
scalar FogNoLB.fog[99].server[0] droppedJobsTotal 4346
scalar FogNoLB.sink avg_responseTime_1 0.047273503308485
scalar FogNoLB.sink p90_responseTime_1 0.014849774317
scalar FogNoLB.sink med_responseTime_1 0.014849774317
scalar FogNoLB.sink avg_delayTime_1 0
scalar FogNoLB.sink p90_delayTime_1 0
scalar FogNoLB.sink med_delayTime_1 0
scalar FogNoLB.sink avg_queuingTime_1 0.030573612244846
scalar FogNoLB.sink p90_queuingTime_1 0
scalar FogNoLB.sink med_queuingTime_1 0
scalar FogNoLB.sink avg_serviceTime_1 0.016699891063643
scalar FogNoLB.sink p90_serviceTime_1 0.014670381127
scalar FogNoLB.sink med_serviceTime_1 0.014670381127
scalar FogNoLB.sink avg_balancerTime_1 0
scalar FogNoLB.sink p90_balancerTime_1 0
scalar FogNoLB.sink med_balancerTime_1 0
scalar FogNoLB.sink avg_balancerCount_1 1
scalar FogNoLB.sink p90_balancerCount_1 1
scalar FogNoLB.sink med_balancerCount_1 1

