version 2
run Fog-mul_001-rho_09-thr_17-2-20190711-22:15:08-60497
attr configname Fog-mul_001-rho_09-thr_17
attr datetime 20190711-22:15:08
attr experiment Fog-mul_001-rho_09-thr_17
attr inifile FogQueueLen.ini
attr iterationvars ""
attr iterationvarsf ""
attr measurement ""
attr network FogNoLB
attr processid 60497
attr repetition 2
attr replication #2
attr resultdir results
attr runnumber 2
attr seedset 2
param FogNoLB.proctimeMul 0.01
param FogNoLB.rho 0.9
param FogNoLB.fog[*].server[*].capacity 17
param FogNoLB.nSources 100
param FogNoLB.rho 0.9
param FogNoLB.proctimeMul 1.0
param FogNoLB.source[*].appId 1
param FogNoLB.fog[*].nServers 1
param FogNoLB.fog[*].dispatcher.fanOut 1
param FogNoLB.fog[*].server[*].timeSlice -1s
param FogNoLB.fog[*].server[*].capacity 5
param FogNoLB.fog[*].server[*].fifo true
param FogNoLB.fog[*].server[*].maxServiceTime -1s

scalar FogNoLB.fog[0].dispatcher localJobs 582367
scalar FogNoLB.fog[0].dispatcher remoteJobs 0
scalar FogNoLB.fog[0].dispatcher probeQueries 0
scalar FogNoLB.fog[0].dispatcher probeAnswers 0
scalar FogNoLB.fog[0].dispatcher droppedJobsSLA 0
scalar FogNoLB.fog[0].dispatcher jobs_class_1 582367
scalar FogNoLB.fog[0].dispatcher localJobs_class_1 582367
scalar FogNoLB.fog[0].server[0] rho 0.88856112957001
scalar FogNoLB.fog[0].server[0] congestionRatio 0
scalar FogNoLB.fog[0].server[0] totalJobs 582367
scalar FogNoLB.fog[0].server[0] droppedJobsQueue 145
scalar FogNoLB.fog[0].server[0] droppedJobsTimout 25496
scalar FogNoLB.fog[0].server[0] droppedJobsSLA 0
scalar FogNoLB.fog[0].server[0] droppedJobsTotal 25641
scalar FogNoLB.fog[1].dispatcher localJobs 581825
scalar FogNoLB.fog[1].dispatcher remoteJobs 0
scalar FogNoLB.fog[1].dispatcher probeQueries 0
scalar FogNoLB.fog[1].dispatcher probeAnswers 0
scalar FogNoLB.fog[1].dispatcher droppedJobsSLA 0
scalar FogNoLB.fog[1].dispatcher jobs_class_1 581825
scalar FogNoLB.fog[1].dispatcher localJobs_class_1 581825
scalar FogNoLB.fog[1].server[0] rho 0.88791757822037
scalar FogNoLB.fog[1].server[0] congestionRatio 0
scalar FogNoLB.fog[1].server[0] totalJobs 581825
scalar FogNoLB.fog[1].server[0] droppedJobsQueue 178
scalar FogNoLB.fog[1].server[0] droppedJobsTimout 24724
scalar FogNoLB.fog[1].server[0] droppedJobsSLA 0
scalar FogNoLB.fog[1].server[0] droppedJobsTotal 24902
scalar FogNoLB.fog[2].dispatcher localJobs 580031
scalar FogNoLB.fog[2].dispatcher remoteJobs 0
scalar FogNoLB.fog[2].dispatcher probeQueries 0
scalar FogNoLB.fog[2].dispatcher probeAnswers 0
scalar FogNoLB.fog[2].dispatcher droppedJobsSLA 0
scalar FogNoLB.fog[2].dispatcher jobs_class_1 580031
scalar FogNoLB.fog[2].dispatcher localJobs_class_1 580031
scalar FogNoLB.fog[2].server[0] rho 0.88548964262009
scalar FogNoLB.fog[2].server[0] congestionRatio 0
scalar FogNoLB.fog[2].server[0] totalJobs 580031
scalar FogNoLB.fog[2].server[0] droppedJobsQueue 151
scalar FogNoLB.fog[2].server[0] droppedJobsTimout 24329
scalar FogNoLB.fog[2].server[0] droppedJobsSLA 0
scalar FogNoLB.fog[2].server[0] droppedJobsTotal 24480
scalar FogNoLB.fog[3].dispatcher localJobs 582179
scalar FogNoLB.fog[3].dispatcher remoteJobs 0
scalar FogNoLB.fog[3].dispatcher probeQueries 0
scalar FogNoLB.fog[3].dispatcher probeAnswers 0
scalar FogNoLB.fog[3].dispatcher droppedJobsSLA 0
scalar FogNoLB.fog[3].dispatcher jobs_class_1 582179
scalar FogNoLB.fog[3].dispatcher localJobs_class_1 582179
scalar FogNoLB.fog[3].server[0] rho 0.88776433467865
scalar FogNoLB.fog[3].server[0] congestionRatio 0
scalar FogNoLB.fog[3].server[0] totalJobs 582179
scalar FogNoLB.fog[3].server[0] droppedJobsQueue 182
scalar FogNoLB.fog[3].server[0] droppedJobsTimout 25961
scalar FogNoLB.fog[3].server[0] droppedJobsSLA 0
scalar FogNoLB.fog[3].server[0] droppedJobsTotal 26143
scalar FogNoLB.fog[4].dispatcher localJobs 581270
scalar FogNoLB.fog[4].dispatcher remoteJobs 0
scalar FogNoLB.fog[4].dispatcher probeQueries 0
scalar FogNoLB.fog[4].dispatcher probeAnswers 0
scalar FogNoLB.fog[4].dispatcher droppedJobsSLA 0
scalar FogNoLB.fog[4].dispatcher jobs_class_1 581270
scalar FogNoLB.fog[4].dispatcher localJobs_class_1 581270
scalar FogNoLB.fog[4].server[0] rho 0.88689857721329
scalar FogNoLB.fog[4].server[0] congestionRatio 0
scalar FogNoLB.fog[4].server[0] totalJobs 581270
scalar FogNoLB.fog[4].server[0] droppedJobsQueue 126
scalar FogNoLB.fog[4].server[0] droppedJobsTimout 25197
scalar FogNoLB.fog[4].server[0] droppedJobsSLA 0
scalar FogNoLB.fog[4].server[0] droppedJobsTotal 25323
scalar FogNoLB.fog[5].dispatcher localJobs 582846
scalar FogNoLB.fog[5].dispatcher remoteJobs 0
scalar FogNoLB.fog[5].dispatcher probeQueries 0
scalar FogNoLB.fog[5].dispatcher probeAnswers 0
scalar FogNoLB.fog[5].dispatcher droppedJobsSLA 0
scalar FogNoLB.fog[5].dispatcher jobs_class_1 582846
scalar FogNoLB.fog[5].dispatcher localJobs_class_1 582846
scalar FogNoLB.fog[5].server[0] rho 0.88946896791458
scalar FogNoLB.fog[5].server[0] congestionRatio 0
scalar FogNoLB.fog[5].server[0] totalJobs 582846
scalar FogNoLB.fog[5].server[0] droppedJobsQueue 163
scalar FogNoLB.fog[5].server[0] droppedJobsTimout 24737
scalar FogNoLB.fog[5].server[0] droppedJobsSLA 0
scalar FogNoLB.fog[5].server[0] droppedJobsTotal 24900
scalar FogNoLB.fog[6].dispatcher localJobs 583778
scalar FogNoLB.fog[6].dispatcher remoteJobs 0
scalar FogNoLB.fog[6].dispatcher probeQueries 0
scalar FogNoLB.fog[6].dispatcher probeAnswers 0
scalar FogNoLB.fog[6].dispatcher droppedJobsSLA 0
scalar FogNoLB.fog[6].dispatcher jobs_class_1 583778
scalar FogNoLB.fog[6].dispatcher localJobs_class_1 583778
scalar FogNoLB.fog[6].server[0] rho 0.89051622152328
scalar FogNoLB.fog[6].server[0] congestionRatio 0
scalar FogNoLB.fog[6].server[0] totalJobs 583778
scalar FogNoLB.fog[6].server[0] droppedJobsQueue 132
scalar FogNoLB.fog[6].server[0] droppedJobsTimout 25972
scalar FogNoLB.fog[6].server[0] droppedJobsSLA 0
scalar FogNoLB.fog[6].server[0] droppedJobsTotal 26104
scalar FogNoLB.fog[7].dispatcher localJobs 581588
scalar FogNoLB.fog[7].dispatcher remoteJobs 0
scalar FogNoLB.fog[7].dispatcher probeQueries 0
scalar FogNoLB.fog[7].dispatcher probeAnswers 0
scalar FogNoLB.fog[7].dispatcher droppedJobsSLA 0
scalar FogNoLB.fog[7].dispatcher jobs_class_1 581588
scalar FogNoLB.fog[7].dispatcher localJobs_class_1 581588
scalar FogNoLB.fog[7].server[0] rho 0.88754785060883
scalar FogNoLB.fog[7].server[0] congestionRatio 0
scalar FogNoLB.fog[7].server[0] totalJobs 581588
scalar FogNoLB.fog[7].server[0] droppedJobsQueue 164
scalar FogNoLB.fog[7].server[0] droppedJobsTimout 24628
scalar FogNoLB.fog[7].server[0] droppedJobsSLA 0
scalar FogNoLB.fog[7].server[0] droppedJobsTotal 24792
scalar FogNoLB.fog[8].dispatcher localJobs 582336
scalar FogNoLB.fog[8].dispatcher remoteJobs 0
scalar FogNoLB.fog[8].dispatcher probeQueries 0
scalar FogNoLB.fog[8].dispatcher probeAnswers 0
scalar FogNoLB.fog[8].dispatcher droppedJobsSLA 0
scalar FogNoLB.fog[8].dispatcher jobs_class_1 582336
scalar FogNoLB.fog[8].dispatcher localJobs_class_1 582336
scalar FogNoLB.fog[8].server[0] rho 0.8888179063797
scalar FogNoLB.fog[8].server[0] congestionRatio 0
scalar FogNoLB.fog[8].server[0] totalJobs 582336
scalar FogNoLB.fog[8].server[0] droppedJobsQueue 148
scalar FogNoLB.fog[8].server[0] droppedJobsTimout 25027
scalar FogNoLB.fog[8].server[0] droppedJobsSLA 0
scalar FogNoLB.fog[8].server[0] droppedJobsTotal 25175
scalar FogNoLB.fog[9].dispatcher localJobs 581649
scalar FogNoLB.fog[9].dispatcher remoteJobs 0
scalar FogNoLB.fog[9].dispatcher probeQueries 0
scalar FogNoLB.fog[9].dispatcher probeAnswers 0
scalar FogNoLB.fog[9].dispatcher droppedJobsSLA 0
scalar FogNoLB.fog[9].dispatcher jobs_class_1 581649
scalar FogNoLB.fog[9].dispatcher localJobs_class_1 581649
scalar FogNoLB.fog[9].server[0] rho 0.88783222436905
scalar FogNoLB.fog[9].server[0] congestionRatio 0
scalar FogNoLB.fog[9].server[0] totalJobs 581649
scalar FogNoLB.fog[9].server[0] droppedJobsQueue 129
scalar FogNoLB.fog[9].server[0] droppedJobsTimout 25043
scalar FogNoLB.fog[9].server[0] droppedJobsSLA 0
scalar FogNoLB.fog[9].server[0] droppedJobsTotal 25172
scalar FogNoLB.fog[10].dispatcher localJobs 581660
scalar FogNoLB.fog[10].dispatcher remoteJobs 0
scalar FogNoLB.fog[10].dispatcher probeQueries 0
scalar FogNoLB.fog[10].dispatcher probeAnswers 0
scalar FogNoLB.fog[10].dispatcher droppedJobsSLA 0
scalar FogNoLB.fog[10].dispatcher jobs_class_1 581660
scalar FogNoLB.fog[10].dispatcher localJobs_class_1 581660
scalar FogNoLB.fog[10].server[0] rho 0.88783711194992
scalar FogNoLB.fog[10].server[0] congestionRatio 0
scalar FogNoLB.fog[10].server[0] totalJobs 581660
scalar FogNoLB.fog[10].server[0] droppedJobsQueue 151
scalar FogNoLB.fog[10].server[0] droppedJobsTimout 24839
scalar FogNoLB.fog[10].server[0] droppedJobsSLA 0
scalar FogNoLB.fog[10].server[0] droppedJobsTotal 24990
scalar FogNoLB.fog[11].dispatcher localJobs 581663
scalar FogNoLB.fog[11].dispatcher remoteJobs 0
scalar FogNoLB.fog[11].dispatcher probeQueries 0
scalar FogNoLB.fog[11].dispatcher probeAnswers 0
scalar FogNoLB.fog[11].dispatcher droppedJobsSLA 0
scalar FogNoLB.fog[11].dispatcher jobs_class_1 581663
scalar FogNoLB.fog[11].dispatcher localJobs_class_1 581663
scalar FogNoLB.fog[11].server[0] rho 0.88720297813416
scalar FogNoLB.fog[11].server[0] congestionRatio 0
scalar FogNoLB.fog[11].server[0] totalJobs 581663
scalar FogNoLB.fog[11].server[0] droppedJobsQueue 199
scalar FogNoLB.fog[11].server[0] droppedJobsTimout 25648
scalar FogNoLB.fog[11].server[0] droppedJobsSLA 0
scalar FogNoLB.fog[11].server[0] droppedJobsTotal 25847
scalar FogNoLB.fog[12].dispatcher localJobs 581953
scalar FogNoLB.fog[12].dispatcher remoteJobs 0
scalar FogNoLB.fog[12].dispatcher probeQueries 0
scalar FogNoLB.fog[12].dispatcher probeAnswers 0
scalar FogNoLB.fog[12].dispatcher droppedJobsSLA 0
scalar FogNoLB.fog[12].dispatcher jobs_class_1 581953
scalar FogNoLB.fog[12].dispatcher localJobs_class_1 581953
scalar FogNoLB.fog[12].server[0] rho 0.88823479413986
scalar FogNoLB.fog[12].server[0] congestionRatio 0
scalar FogNoLB.fog[12].server[0] totalJobs 581953
scalar FogNoLB.fog[12].server[0] droppedJobsQueue 167
scalar FogNoLB.fog[12].server[0] droppedJobsTimout 24703
scalar FogNoLB.fog[12].server[0] droppedJobsSLA 0
scalar FogNoLB.fog[12].server[0] droppedJobsTotal 24870
scalar FogNoLB.fog[13].dispatcher localJobs 582387
scalar FogNoLB.fog[13].dispatcher remoteJobs 0
scalar FogNoLB.fog[13].dispatcher probeQueries 0
scalar FogNoLB.fog[13].dispatcher probeAnswers 0
scalar FogNoLB.fog[13].dispatcher droppedJobsSLA 0
scalar FogNoLB.fog[13].dispatcher jobs_class_1 582387
scalar FogNoLB.fog[13].dispatcher localJobs_class_1 582387
scalar FogNoLB.fog[13].server[0] rho 0.88849174976349
scalar FogNoLB.fog[13].server[0] congestionRatio 0
scalar FogNoLB.fog[13].server[0] totalJobs 582387
scalar FogNoLB.fog[13].server[0] droppedJobsQueue 172
scalar FogNoLB.fog[13].server[0] droppedJobsTimout 25299
scalar FogNoLB.fog[13].server[0] droppedJobsSLA 0
scalar FogNoLB.fog[13].server[0] droppedJobsTotal 25471
scalar FogNoLB.fog[14].dispatcher localJobs 583122
scalar FogNoLB.fog[14].dispatcher remoteJobs 0
scalar FogNoLB.fog[14].dispatcher probeQueries 0
scalar FogNoLB.fog[14].dispatcher probeAnswers 0
scalar FogNoLB.fog[14].dispatcher droppedJobsSLA 0
scalar FogNoLB.fog[14].dispatcher jobs_class_1 583122
scalar FogNoLB.fog[14].dispatcher localJobs_class_1 583122
scalar FogNoLB.fog[14].server[0] rho 0.88937842845917
scalar FogNoLB.fog[14].server[0] congestionRatio 0
scalar FogNoLB.fog[14].server[0] totalJobs 583122
scalar FogNoLB.fog[14].server[0] droppedJobsQueue 150
scalar FogNoLB.fog[14].server[0] droppedJobsTimout 26023
scalar FogNoLB.fog[14].server[0] droppedJobsSLA 0
scalar FogNoLB.fog[14].server[0] droppedJobsTotal 26173
scalar FogNoLB.fog[15].dispatcher localJobs 580604
scalar FogNoLB.fog[15].dispatcher remoteJobs 0
scalar FogNoLB.fog[15].dispatcher probeQueries 0
scalar FogNoLB.fog[15].dispatcher probeAnswers 0
scalar FogNoLB.fog[15].dispatcher droppedJobsSLA 0
scalar FogNoLB.fog[15].dispatcher jobs_class_1 580604
scalar FogNoLB.fog[15].dispatcher localJobs_class_1 580604
scalar FogNoLB.fog[15].server[0] rho 0.88633406162262
scalar FogNoLB.fog[15].server[0] congestionRatio 0
scalar FogNoLB.fog[15].server[0] totalJobs 580604
scalar FogNoLB.fog[15].server[0] droppedJobsQueue 129
scalar FogNoLB.fog[15].server[0] droppedJobsTimout 24293
scalar FogNoLB.fog[15].server[0] droppedJobsSLA 0
scalar FogNoLB.fog[15].server[0] droppedJobsTotal 24422
scalar FogNoLB.fog[16].dispatcher localJobs 583129
scalar FogNoLB.fog[16].dispatcher remoteJobs 0
scalar FogNoLB.fog[16].dispatcher probeQueries 0
scalar FogNoLB.fog[16].dispatcher probeAnswers 0
scalar FogNoLB.fog[16].dispatcher droppedJobsSLA 0
scalar FogNoLB.fog[16].dispatcher jobs_class_1 583129
scalar FogNoLB.fog[16].dispatcher localJobs_class_1 583129
scalar FogNoLB.fog[16].server[0] rho 0.88919746875763
scalar FogNoLB.fog[16].server[0] congestionRatio 0
scalar FogNoLB.fog[16].server[0] totalJobs 583129
scalar FogNoLB.fog[16].server[0] droppedJobsQueue 143
scalar FogNoLB.fog[16].server[0] droppedJobsTimout 26582
scalar FogNoLB.fog[16].server[0] droppedJobsSLA 0
scalar FogNoLB.fog[16].server[0] droppedJobsTotal 26725
scalar FogNoLB.fog[17].dispatcher localJobs 581809
scalar FogNoLB.fog[17].dispatcher remoteJobs 0
scalar FogNoLB.fog[17].dispatcher probeQueries 0
scalar FogNoLB.fog[17].dispatcher probeAnswers 0
scalar FogNoLB.fog[17].dispatcher droppedJobsSLA 0
scalar FogNoLB.fog[17].dispatcher jobs_class_1 581809
scalar FogNoLB.fog[17].dispatcher localJobs_class_1 581809
scalar FogNoLB.fog[17].server[0] rho 0.88785874843597
scalar FogNoLB.fog[17].server[0] congestionRatio 0
scalar FogNoLB.fog[17].server[0] totalJobs 581809
scalar FogNoLB.fog[17].server[0] droppedJobsQueue 158
scalar FogNoLB.fog[17].server[0] droppedJobsTimout 25006
scalar FogNoLB.fog[17].server[0] droppedJobsSLA 0
scalar FogNoLB.fog[17].server[0] droppedJobsTotal 25164
scalar FogNoLB.fog[18].dispatcher localJobs 581924
scalar FogNoLB.fog[18].dispatcher remoteJobs 0
scalar FogNoLB.fog[18].dispatcher probeQueries 0
scalar FogNoLB.fog[18].dispatcher probeAnswers 0
scalar FogNoLB.fog[18].dispatcher droppedJobsSLA 0
scalar FogNoLB.fog[18].dispatcher jobs_class_1 581924
scalar FogNoLB.fog[18].dispatcher localJobs_class_1 581924
scalar FogNoLB.fog[18].server[0] rho 0.88764971494675
scalar FogNoLB.fog[18].server[0] congestionRatio 0
scalar FogNoLB.fog[18].server[0] totalJobs 581924
scalar FogNoLB.fog[18].server[0] droppedJobsQueue 166
scalar FogNoLB.fog[18].server[0] droppedJobsTimout 25618
scalar FogNoLB.fog[18].server[0] droppedJobsSLA 0
scalar FogNoLB.fog[18].server[0] droppedJobsTotal 25784
scalar FogNoLB.fog[19].dispatcher localJobs 582196
scalar FogNoLB.fog[19].dispatcher remoteJobs 0
scalar FogNoLB.fog[19].dispatcher probeQueries 0
scalar FogNoLB.fog[19].dispatcher probeAnswers 0
scalar FogNoLB.fog[19].dispatcher droppedJobsSLA 0
scalar FogNoLB.fog[19].dispatcher jobs_class_1 582196
scalar FogNoLB.fog[19].dispatcher localJobs_class_1 582196
scalar FogNoLB.fog[19].server[0] rho 0.88831734657288
scalar FogNoLB.fog[19].server[0] congestionRatio 0
scalar FogNoLB.fog[19].server[0] totalJobs 582196
scalar FogNoLB.fog[19].server[0] droppedJobsQueue 153
scalar FogNoLB.fog[19].server[0] droppedJobsTimout 25501
scalar FogNoLB.fog[19].server[0] droppedJobsSLA 0
scalar FogNoLB.fog[19].server[0] droppedJobsTotal 25654
scalar FogNoLB.fog[20].dispatcher localJobs 583128
scalar FogNoLB.fog[20].dispatcher remoteJobs 0
scalar FogNoLB.fog[20].dispatcher probeQueries 0
scalar FogNoLB.fog[20].dispatcher probeAnswers 0
scalar FogNoLB.fog[20].dispatcher droppedJobsSLA 0
scalar FogNoLB.fog[20].dispatcher jobs_class_1 583128
scalar FogNoLB.fog[20].dispatcher localJobs_class_1 583128
scalar FogNoLB.fog[20].server[0] rho 0.88978296518326
scalar FogNoLB.fog[20].server[0] congestionRatio 0
scalar FogNoLB.fog[20].server[0] totalJobs 583128
scalar FogNoLB.fog[20].server[0] droppedJobsQueue 144
scalar FogNoLB.fog[20].server[0] droppedJobsTimout 25218
scalar FogNoLB.fog[20].server[0] droppedJobsSLA 0
scalar FogNoLB.fog[20].server[0] droppedJobsTotal 25362
scalar FogNoLB.fog[21].dispatcher localJobs 583820
scalar FogNoLB.fog[21].dispatcher remoteJobs 0
scalar FogNoLB.fog[21].dispatcher probeQueries 0
scalar FogNoLB.fog[21].dispatcher probeAnswers 0
scalar FogNoLB.fog[21].dispatcher droppedJobsSLA 0
scalar FogNoLB.fog[21].dispatcher jobs_class_1 583820
scalar FogNoLB.fog[21].dispatcher localJobs_class_1 583820
scalar FogNoLB.fog[21].server[0] rho 0.89054131507874
scalar FogNoLB.fog[21].server[0] congestionRatio 0
scalar FogNoLB.fog[21].server[0] totalJobs 583820
scalar FogNoLB.fog[21].server[0] droppedJobsQueue 125
scalar FogNoLB.fog[21].server[0] droppedJobsTimout 26039
scalar FogNoLB.fog[21].server[0] droppedJobsSLA 0
scalar FogNoLB.fog[21].server[0] droppedJobsTotal 26164
scalar FogNoLB.fog[22].dispatcher localJobs 583004
scalar FogNoLB.fog[22].dispatcher remoteJobs 0
scalar FogNoLB.fog[22].dispatcher probeQueries 0
scalar FogNoLB.fog[22].dispatcher probeAnswers 0
scalar FogNoLB.fog[22].dispatcher droppedJobsSLA 0
scalar FogNoLB.fog[22].dispatcher jobs_class_1 583004
scalar FogNoLB.fog[22].dispatcher localJobs_class_1 583004
scalar FogNoLB.fog[22].server[0] rho 0.88944929838181
scalar FogNoLB.fog[22].server[0] congestionRatio 0
scalar FogNoLB.fog[22].server[0] totalJobs 583004
scalar FogNoLB.fog[22].server[0] droppedJobsQueue 138
scalar FogNoLB.fog[22].server[0] droppedJobsTimout 25358
scalar FogNoLB.fog[22].server[0] droppedJobsSLA 0
scalar FogNoLB.fog[22].server[0] droppedJobsTotal 25496
scalar FogNoLB.fog[23].dispatcher localJobs 582080
scalar FogNoLB.fog[23].dispatcher remoteJobs 0
scalar FogNoLB.fog[23].dispatcher probeQueries 0
scalar FogNoLB.fog[23].dispatcher probeAnswers 0
scalar FogNoLB.fog[23].dispatcher droppedJobsSLA 0
scalar FogNoLB.fog[23].dispatcher jobs_class_1 582080
scalar FogNoLB.fog[23].dispatcher localJobs_class_1 582080
scalar FogNoLB.fog[23].server[0] rho 0.88830119371414
scalar FogNoLB.fog[23].server[0] congestionRatio 0
scalar FogNoLB.fog[23].server[0] totalJobs 582080
scalar FogNoLB.fog[23].server[0] droppedJobsQueue 149
scalar FogNoLB.fog[23].server[0] droppedJobsTimout 25068
scalar FogNoLB.fog[23].server[0] droppedJobsSLA 0
scalar FogNoLB.fog[23].server[0] droppedJobsTotal 25217
scalar FogNoLB.fog[24].dispatcher localJobs 581831
scalar FogNoLB.fog[24].dispatcher remoteJobs 0
scalar FogNoLB.fog[24].dispatcher probeQueries 0
scalar FogNoLB.fog[24].dispatcher probeAnswers 0
scalar FogNoLB.fog[24].dispatcher droppedJobsSLA 0
scalar FogNoLB.fog[24].dispatcher jobs_class_1 581831
scalar FogNoLB.fog[24].dispatcher localJobs_class_1 581831
scalar FogNoLB.fog[24].server[0] rho 0.88789814710617
scalar FogNoLB.fog[24].server[0] congestionRatio 0
scalar FogNoLB.fog[24].server[0] totalJobs 581831
scalar FogNoLB.fog[24].server[0] droppedJobsQueue 129
scalar FogNoLB.fog[24].server[0] droppedJobsTimout 24546
scalar FogNoLB.fog[24].server[0] droppedJobsSLA 0
scalar FogNoLB.fog[24].server[0] droppedJobsTotal 24675
scalar FogNoLB.fog[25].dispatcher localJobs 581606
scalar FogNoLB.fog[25].dispatcher remoteJobs 0
scalar FogNoLB.fog[25].dispatcher probeQueries 0
scalar FogNoLB.fog[25].dispatcher probeAnswers 0
scalar FogNoLB.fog[25].dispatcher droppedJobsSLA 0
scalar FogNoLB.fog[25].dispatcher jobs_class_1 581606
scalar FogNoLB.fog[25].dispatcher localJobs_class_1 581606
scalar FogNoLB.fog[25].server[0] rho 0.88739794492722
scalar FogNoLB.fog[25].server[0] congestionRatio 0
scalar FogNoLB.fog[25].server[0] totalJobs 581606
scalar FogNoLB.fog[25].server[0] droppedJobsQueue 144
scalar FogNoLB.fog[25].server[0] droppedJobsTimout 25137
scalar FogNoLB.fog[25].server[0] droppedJobsSLA 0
scalar FogNoLB.fog[25].server[0] droppedJobsTotal 25281
scalar FogNoLB.fog[26].dispatcher localJobs 582554
scalar FogNoLB.fog[26].dispatcher remoteJobs 0
scalar FogNoLB.fog[26].dispatcher probeQueries 0
scalar FogNoLB.fog[26].dispatcher probeAnswers 0
scalar FogNoLB.fog[26].dispatcher droppedJobsSLA 0
scalar FogNoLB.fog[26].dispatcher jobs_class_1 582554
scalar FogNoLB.fog[26].dispatcher localJobs_class_1 582554
scalar FogNoLB.fog[26].server[0] rho 0.88872593641281
scalar FogNoLB.fog[26].server[0] congestionRatio 0
scalar FogNoLB.fog[26].server[0] totalJobs 582554
scalar FogNoLB.fog[26].server[0] droppedJobsQueue 123
scalar FogNoLB.fog[26].server[0] droppedJobsTimout 25820
scalar FogNoLB.fog[26].server[0] droppedJobsSLA 0
scalar FogNoLB.fog[26].server[0] droppedJobsTotal 25943
scalar FogNoLB.fog[27].dispatcher localJobs 581492
scalar FogNoLB.fog[27].dispatcher remoteJobs 0
scalar FogNoLB.fog[27].dispatcher probeQueries 0
scalar FogNoLB.fog[27].dispatcher probeAnswers 0
scalar FogNoLB.fog[27].dispatcher droppedJobsSLA 0
scalar FogNoLB.fog[27].dispatcher jobs_class_1 581492
scalar FogNoLB.fog[27].dispatcher localJobs_class_1 581492
scalar FogNoLB.fog[27].server[0] rho 0.88682740926743
scalar FogNoLB.fog[27].server[0] congestionRatio 0
scalar FogNoLB.fog[27].server[0] totalJobs 581492
scalar FogNoLB.fog[27].server[0] droppedJobsQueue 161
scalar FogNoLB.fog[27].server[0] droppedJobsTimout 25911
scalar FogNoLB.fog[27].server[0] droppedJobsSLA 0
scalar FogNoLB.fog[27].server[0] droppedJobsTotal 26072
scalar FogNoLB.fog[28].dispatcher localJobs 581954
scalar FogNoLB.fog[28].dispatcher remoteJobs 0
scalar FogNoLB.fog[28].dispatcher probeQueries 0
scalar FogNoLB.fog[28].dispatcher probeAnswers 0
scalar FogNoLB.fog[28].dispatcher droppedJobsSLA 0
scalar FogNoLB.fog[28].dispatcher jobs_class_1 581954
scalar FogNoLB.fog[28].dispatcher localJobs_class_1 581954
scalar FogNoLB.fog[28].server[0] rho 0.88810938596725
scalar FogNoLB.fog[28].server[0] congestionRatio 0
scalar FogNoLB.fog[28].server[0] totalJobs 581954
scalar FogNoLB.fog[28].server[0] droppedJobsQueue 124
scalar FogNoLB.fog[28].server[0] droppedJobsTimout 25229
scalar FogNoLB.fog[28].server[0] droppedJobsSLA 0
scalar FogNoLB.fog[28].server[0] droppedJobsTotal 25353
scalar FogNoLB.fog[29].dispatcher localJobs 582043
scalar FogNoLB.fog[29].dispatcher remoteJobs 0
scalar FogNoLB.fog[29].dispatcher probeQueries 0
scalar FogNoLB.fog[29].dispatcher probeAnswers 0
scalar FogNoLB.fog[29].dispatcher droppedJobsSLA 0
scalar FogNoLB.fog[29].dispatcher jobs_class_1 582043
scalar FogNoLB.fog[29].dispatcher localJobs_class_1 582043
scalar FogNoLB.fog[29].server[0] rho 0.88787561655045
scalar FogNoLB.fog[29].server[0] congestionRatio 0
scalar FogNoLB.fog[29].server[0] totalJobs 582043
scalar FogNoLB.fog[29].server[0] droppedJobsQueue 128
scalar FogNoLB.fog[29].server[0] droppedJobsTimout 25812
scalar FogNoLB.fog[29].server[0] droppedJobsSLA 0
scalar FogNoLB.fog[29].server[0] droppedJobsTotal 25940
scalar FogNoLB.fog[30].dispatcher localJobs 582426
scalar FogNoLB.fog[30].dispatcher remoteJobs 0
scalar FogNoLB.fog[30].dispatcher probeQueries 0
scalar FogNoLB.fog[30].dispatcher probeAnswers 0
scalar FogNoLB.fog[30].dispatcher droppedJobsSLA 0
scalar FogNoLB.fog[30].dispatcher jobs_class_1 582426
scalar FogNoLB.fog[30].dispatcher localJobs_class_1 582426
scalar FogNoLB.fog[30].server[0] rho 0.88861572742462
scalar FogNoLB.fog[30].server[0] congestionRatio 0
scalar FogNoLB.fog[30].server[0] totalJobs 582426
scalar FogNoLB.fog[30].server[0] droppedJobsQueue 177
scalar FogNoLB.fog[30].server[0] droppedJobsTimout 25236
scalar FogNoLB.fog[30].server[0] droppedJobsSLA 0
scalar FogNoLB.fog[30].server[0] droppedJobsTotal 25413
scalar FogNoLB.fog[31].dispatcher localJobs 582689
scalar FogNoLB.fog[31].dispatcher remoteJobs 0
scalar FogNoLB.fog[31].dispatcher probeQueries 0
scalar FogNoLB.fog[31].dispatcher probeAnswers 0
scalar FogNoLB.fog[31].dispatcher droppedJobsSLA 0
scalar FogNoLB.fog[31].dispatcher jobs_class_1 582689
scalar FogNoLB.fog[31].dispatcher localJobs_class_1 582689
scalar FogNoLB.fog[31].server[0] rho 0.88900750875473
scalar FogNoLB.fog[31].server[0] congestionRatio 0
scalar FogNoLB.fog[31].server[0] totalJobs 582689
scalar FogNoLB.fog[31].server[0] droppedJobsQueue 140
scalar FogNoLB.fog[31].server[0] droppedJobsTimout 25558
scalar FogNoLB.fog[31].server[0] droppedJobsSLA 0
scalar FogNoLB.fog[31].server[0] droppedJobsTotal 25698
scalar FogNoLB.fog[32].dispatcher localJobs 581948
scalar FogNoLB.fog[32].dispatcher remoteJobs 0
scalar FogNoLB.fog[32].dispatcher probeQueries 0
scalar FogNoLB.fog[32].dispatcher probeAnswers 0
scalar FogNoLB.fog[32].dispatcher droppedJobsSLA 0
scalar FogNoLB.fog[32].dispatcher jobs_class_1 581948
scalar FogNoLB.fog[32].dispatcher localJobs_class_1 581948
scalar FogNoLB.fog[32].server[0] rho 0.88815158605576
scalar FogNoLB.fog[32].server[0] congestionRatio 0
scalar FogNoLB.fog[32].server[0] totalJobs 581948
scalar FogNoLB.fog[32].server[0] droppedJobsQueue 166
scalar FogNoLB.fog[32].server[0] droppedJobsTimout 24363
scalar FogNoLB.fog[32].server[0] droppedJobsSLA 0
scalar FogNoLB.fog[32].server[0] droppedJobsTotal 24529
scalar FogNoLB.fog[33].dispatcher localJobs 583311
scalar FogNoLB.fog[33].dispatcher remoteJobs 0
scalar FogNoLB.fog[33].dispatcher probeQueries 0
scalar FogNoLB.fog[33].dispatcher probeAnswers 0
scalar FogNoLB.fog[33].dispatcher droppedJobsSLA 0
scalar FogNoLB.fog[33].dispatcher jobs_class_1 583311
scalar FogNoLB.fog[33].dispatcher localJobs_class_1 583311
scalar FogNoLB.fog[33].server[0] rho 0.88926720619202
scalar FogNoLB.fog[33].server[0] congestionRatio 0
scalar FogNoLB.fog[33].server[0] totalJobs 583311
scalar FogNoLB.fog[33].server[0] droppedJobsQueue 172
scalar FogNoLB.fog[33].server[0] droppedJobsTimout 26361
scalar FogNoLB.fog[33].server[0] droppedJobsSLA 0
scalar FogNoLB.fog[33].server[0] droppedJobsTotal 26533
scalar FogNoLB.fog[34].dispatcher localJobs 581597
scalar FogNoLB.fog[34].dispatcher remoteJobs 0
scalar FogNoLB.fog[34].dispatcher probeQueries 0
scalar FogNoLB.fog[34].dispatcher probeAnswers 0
scalar FogNoLB.fog[34].dispatcher droppedJobsSLA 0
scalar FogNoLB.fog[34].dispatcher jobs_class_1 581597
scalar FogNoLB.fog[34].dispatcher localJobs_class_1 581597
scalar FogNoLB.fog[34].server[0] rho 0.8877666592598
scalar FogNoLB.fog[34].server[0] congestionRatio 0
scalar FogNoLB.fog[34].server[0] totalJobs 581597
scalar FogNoLB.fog[34].server[0] droppedJobsQueue 165
scalar FogNoLB.fog[34].server[0] droppedJobsTimout 24534
scalar FogNoLB.fog[34].server[0] droppedJobsSLA 0
scalar FogNoLB.fog[34].server[0] droppedJobsTotal 24699
scalar FogNoLB.fog[35].dispatcher localJobs 582985
scalar FogNoLB.fog[35].dispatcher remoteJobs 0
scalar FogNoLB.fog[35].dispatcher probeQueries 0
scalar FogNoLB.fog[35].dispatcher probeAnswers 0
scalar FogNoLB.fog[35].dispatcher droppedJobsSLA 0
scalar FogNoLB.fog[35].dispatcher jobs_class_1 582985
scalar FogNoLB.fog[35].dispatcher localJobs_class_1 582985
scalar FogNoLB.fog[35].server[0] rho 0.88887250423431
scalar FogNoLB.fog[35].server[0] congestionRatio 0
scalar FogNoLB.fog[35].server[0] totalJobs 582985
scalar FogNoLB.fog[35].server[0] droppedJobsQueue 156
scalar FogNoLB.fog[35].server[0] droppedJobsTimout 26196
scalar FogNoLB.fog[35].server[0] droppedJobsSLA 0
scalar FogNoLB.fog[35].server[0] droppedJobsTotal 26352
scalar FogNoLB.fog[36].dispatcher localJobs 582293
scalar FogNoLB.fog[36].dispatcher remoteJobs 0
scalar FogNoLB.fog[36].dispatcher probeQueries 0
scalar FogNoLB.fog[36].dispatcher probeAnswers 0
scalar FogNoLB.fog[36].dispatcher droppedJobsSLA 0
scalar FogNoLB.fog[36].dispatcher jobs_class_1 582293
scalar FogNoLB.fog[36].dispatcher localJobs_class_1 582293
scalar FogNoLB.fog[36].server[0] rho 0.88796931505203
scalar FogNoLB.fog[36].server[0] congestionRatio 0
scalar FogNoLB.fog[36].server[0] totalJobs 582293
scalar FogNoLB.fog[36].server[0] droppedJobsQueue 124
scalar FogNoLB.fog[36].server[0] droppedJobsTimout 26475
scalar FogNoLB.fog[36].server[0] droppedJobsSLA 0
scalar FogNoLB.fog[36].server[0] droppedJobsTotal 26599
scalar FogNoLB.fog[37].dispatcher localJobs 582121
scalar FogNoLB.fog[37].dispatcher remoteJobs 0
scalar FogNoLB.fog[37].dispatcher probeQueries 0
scalar FogNoLB.fog[37].dispatcher probeAnswers 0
scalar FogNoLB.fog[37].dispatcher droppedJobsSLA 0
scalar FogNoLB.fog[37].dispatcher jobs_class_1 582121
scalar FogNoLB.fog[37].dispatcher localJobs_class_1 582121
scalar FogNoLB.fog[37].server[0] rho 0.88822048902512
scalar FogNoLB.fog[37].server[0] congestionRatio 0
scalar FogNoLB.fog[37].server[0] totalJobs 582121
scalar FogNoLB.fog[37].server[0] droppedJobsQueue 214
scalar FogNoLB.fog[37].server[0] droppedJobsTimout 24748
scalar FogNoLB.fog[37].server[0] droppedJobsSLA 0
scalar FogNoLB.fog[37].server[0] droppedJobsTotal 24962
scalar FogNoLB.fog[38].dispatcher localJobs 580986
scalar FogNoLB.fog[38].dispatcher remoteJobs 0
scalar FogNoLB.fog[38].dispatcher probeQueries 0
scalar FogNoLB.fog[38].dispatcher probeAnswers 0
scalar FogNoLB.fog[38].dispatcher droppedJobsSLA 0
scalar FogNoLB.fog[38].dispatcher jobs_class_1 580986
scalar FogNoLB.fog[38].dispatcher localJobs_class_1 580986
scalar FogNoLB.fog[38].server[0] rho 0.88643765449524
scalar FogNoLB.fog[38].server[0] congestionRatio 0
scalar FogNoLB.fog[38].server[0] totalJobs 580986
scalar FogNoLB.fog[38].server[0] droppedJobsQueue 145
scalar FogNoLB.fog[38].server[0] droppedJobsTimout 24958
scalar FogNoLB.fog[38].server[0] droppedJobsSLA 0
scalar FogNoLB.fog[38].server[0] droppedJobsTotal 25103
scalar FogNoLB.fog[39].dispatcher localJobs 582431
scalar FogNoLB.fog[39].dispatcher remoteJobs 0
scalar FogNoLB.fog[39].dispatcher probeQueries 0
scalar FogNoLB.fog[39].dispatcher probeAnswers 0
scalar FogNoLB.fog[39].dispatcher droppedJobsSLA 0
scalar FogNoLB.fog[39].dispatcher jobs_class_1 582431
scalar FogNoLB.fog[39].dispatcher localJobs_class_1 582431
scalar FogNoLB.fog[39].server[0] rho 0.88843083381653
scalar FogNoLB.fog[39].server[0] congestionRatio 0
scalar FogNoLB.fog[39].server[0] totalJobs 582431
scalar FogNoLB.fog[39].server[0] droppedJobsQueue 162
scalar FogNoLB.fog[39].server[0] droppedJobsTimout 25886
scalar FogNoLB.fog[39].server[0] droppedJobsSLA 0
scalar FogNoLB.fog[39].server[0] droppedJobsTotal 26048
scalar FogNoLB.fog[40].dispatcher localJobs 580943
scalar FogNoLB.fog[40].dispatcher remoteJobs 0
scalar FogNoLB.fog[40].dispatcher probeQueries 0
scalar FogNoLB.fog[40].dispatcher probeAnswers 0
scalar FogNoLB.fog[40].dispatcher droppedJobsSLA 0
scalar FogNoLB.fog[40].dispatcher jobs_class_1 580943
scalar FogNoLB.fog[40].dispatcher localJobs_class_1 580943
scalar FogNoLB.fog[40].server[0] rho 0.88663858175278
scalar FogNoLB.fog[40].server[0] congestionRatio 0
scalar FogNoLB.fog[40].server[0] totalJobs 580943
scalar FogNoLB.fog[40].server[0] droppedJobsQueue 169
scalar FogNoLB.fog[40].server[0] droppedJobsTimout 24714
scalar FogNoLB.fog[40].server[0] droppedJobsSLA 0
scalar FogNoLB.fog[40].server[0] droppedJobsTotal 24883
scalar FogNoLB.fog[41].dispatcher localJobs 581801
scalar FogNoLB.fog[41].dispatcher remoteJobs 0
scalar FogNoLB.fog[41].dispatcher probeQueries 0
scalar FogNoLB.fog[41].dispatcher probeAnswers 0
scalar FogNoLB.fog[41].dispatcher droppedJobsSLA 0
scalar FogNoLB.fog[41].dispatcher jobs_class_1 581801
scalar FogNoLB.fog[41].dispatcher localJobs_class_1 581801
scalar FogNoLB.fog[41].server[0] rho 0.88799780607224
scalar FogNoLB.fog[41].server[0] congestionRatio 0
scalar FogNoLB.fog[41].server[0] totalJobs 581801
scalar FogNoLB.fog[41].server[0] droppedJobsQueue 145
scalar FogNoLB.fog[41].server[0] droppedJobsTimout 25049
scalar FogNoLB.fog[41].server[0] droppedJobsSLA 0
scalar FogNoLB.fog[41].server[0] droppedJobsTotal 25194
scalar FogNoLB.fog[42].dispatcher localJobs 581795
scalar FogNoLB.fog[42].dispatcher remoteJobs 0
scalar FogNoLB.fog[42].dispatcher probeQueries 0
scalar FogNoLB.fog[42].dispatcher probeAnswers 0
scalar FogNoLB.fog[42].dispatcher droppedJobsSLA 0
scalar FogNoLB.fog[42].dispatcher jobs_class_1 581795
scalar FogNoLB.fog[42].dispatcher localJobs_class_1 581795
scalar FogNoLB.fog[42].server[0] rho 0.88815575838089
scalar FogNoLB.fog[42].server[0] congestionRatio 0
scalar FogNoLB.fog[42].server[0] totalJobs 581795
scalar FogNoLB.fog[42].server[0] droppedJobsQueue 116
scalar FogNoLB.fog[42].server[0] droppedJobsTimout 24370
scalar FogNoLB.fog[42].server[0] droppedJobsSLA 0
scalar FogNoLB.fog[42].server[0] droppedJobsTotal 24486
scalar FogNoLB.fog[43].dispatcher localJobs 582393
scalar FogNoLB.fog[43].dispatcher remoteJobs 0
scalar FogNoLB.fog[43].dispatcher probeQueries 0
scalar FogNoLB.fog[43].dispatcher probeAnswers 0
scalar FogNoLB.fog[43].dispatcher droppedJobsSLA 0
scalar FogNoLB.fog[43].dispatcher jobs_class_1 582393
scalar FogNoLB.fog[43].dispatcher localJobs_class_1 582393
scalar FogNoLB.fog[43].server[0] rho 0.88883918523788
scalar FogNoLB.fog[43].server[0] congestionRatio 0
scalar FogNoLB.fog[43].server[0] totalJobs 582393
scalar FogNoLB.fog[43].server[0] droppedJobsQueue 162
scalar FogNoLB.fog[43].server[0] droppedJobsTimout 24992
scalar FogNoLB.fog[43].server[0] droppedJobsSLA 0
scalar FogNoLB.fog[43].server[0] droppedJobsTotal 25154
scalar FogNoLB.fog[44].dispatcher localJobs 580415
scalar FogNoLB.fog[44].dispatcher remoteJobs 0
scalar FogNoLB.fog[44].dispatcher probeQueries 0
scalar FogNoLB.fog[44].dispatcher probeAnswers 0
scalar FogNoLB.fog[44].dispatcher droppedJobsSLA 0
scalar FogNoLB.fog[44].dispatcher jobs_class_1 580415
scalar FogNoLB.fog[44].dispatcher localJobs_class_1 580415
scalar FogNoLB.fog[44].server[0] rho 0.88623088598251
scalar FogNoLB.fog[44].server[0] congestionRatio 0
scalar FogNoLB.fog[44].server[0] totalJobs 580415
scalar FogNoLB.fog[44].server[0] droppedJobsQueue 139
scalar FogNoLB.fog[44].server[0] droppedJobsTimout 23697
scalar FogNoLB.fog[44].server[0] droppedJobsSLA 0
scalar FogNoLB.fog[44].server[0] droppedJobsTotal 23836
scalar FogNoLB.fog[45].dispatcher localJobs 580844
scalar FogNoLB.fog[45].dispatcher remoteJobs 0
scalar FogNoLB.fog[45].dispatcher probeQueries 0
scalar FogNoLB.fog[45].dispatcher probeAnswers 0
scalar FogNoLB.fog[45].dispatcher droppedJobsSLA 0
scalar FogNoLB.fog[45].dispatcher jobs_class_1 580844
scalar FogNoLB.fog[45].dispatcher localJobs_class_1 580844
scalar FogNoLB.fog[45].server[0] rho 0.88667416572571
scalar FogNoLB.fog[45].server[0] congestionRatio 0
scalar FogNoLB.fog[45].server[0] totalJobs 580844
scalar FogNoLB.fog[45].server[0] droppedJobsQueue 130
scalar FogNoLB.fog[45].server[0] droppedJobsTimout 24491
scalar FogNoLB.fog[45].server[0] droppedJobsSLA 0
scalar FogNoLB.fog[45].server[0] droppedJobsTotal 24621
scalar FogNoLB.fog[46].dispatcher localJobs 581219
scalar FogNoLB.fog[46].dispatcher remoteJobs 0
scalar FogNoLB.fog[46].dispatcher probeQueries 0
scalar FogNoLB.fog[46].dispatcher probeAnswers 0
scalar FogNoLB.fog[46].dispatcher droppedJobsSLA 0
scalar FogNoLB.fog[46].dispatcher jobs_class_1 581219
scalar FogNoLB.fog[46].dispatcher localJobs_class_1 581219
scalar FogNoLB.fog[46].server[0] rho 0.88695478439331
scalar FogNoLB.fog[46].server[0] congestionRatio 0
scalar FogNoLB.fog[46].server[0] totalJobs 581219
scalar FogNoLB.fog[46].server[0] droppedJobsQueue 144
scalar FogNoLB.fog[46].server[0] droppedJobsTimout 24994
scalar FogNoLB.fog[46].server[0] droppedJobsSLA 0
scalar FogNoLB.fog[46].server[0] droppedJobsTotal 25138
scalar FogNoLB.fog[47].dispatcher localJobs 579846
scalar FogNoLB.fog[47].dispatcher remoteJobs 0
scalar FogNoLB.fog[47].dispatcher probeQueries 0
scalar FogNoLB.fog[47].dispatcher probeAnswers 0
scalar FogNoLB.fog[47].dispatcher droppedJobsSLA 0
scalar FogNoLB.fog[47].dispatcher jobs_class_1 579846
scalar FogNoLB.fog[47].dispatcher localJobs_class_1 579846
scalar FogNoLB.fog[47].server[0] rho 0.88572818040848
scalar FogNoLB.fog[47].server[0] congestionRatio 0
scalar FogNoLB.fog[47].server[0] totalJobs 579846
scalar FogNoLB.fog[47].server[0] droppedJobsQueue 112
scalar FogNoLB.fog[47].server[0] droppedJobsTimout 23639
scalar FogNoLB.fog[47].server[0] droppedJobsSLA 0
scalar FogNoLB.fog[47].server[0] droppedJobsTotal 23751
scalar FogNoLB.fog[48].dispatcher localJobs 582782
scalar FogNoLB.fog[48].dispatcher remoteJobs 0
scalar FogNoLB.fog[48].dispatcher probeQueries 0
scalar FogNoLB.fog[48].dispatcher probeAnswers 0
scalar FogNoLB.fog[48].dispatcher droppedJobsSLA 0
scalar FogNoLB.fog[48].dispatcher jobs_class_1 582782
scalar FogNoLB.fog[48].dispatcher localJobs_class_1 582782
scalar FogNoLB.fog[48].server[0] rho 0.88919776678085
scalar FogNoLB.fog[48].server[0] congestionRatio 0
scalar FogNoLB.fog[48].server[0] totalJobs 582782
scalar FogNoLB.fog[48].server[0] droppedJobsQueue 116
scalar FogNoLB.fog[48].server[0] droppedJobsTimout 25249
scalar FogNoLB.fog[48].server[0] droppedJobsSLA 0
scalar FogNoLB.fog[48].server[0] droppedJobsTotal 25365
scalar FogNoLB.fog[49].dispatcher localJobs 582178
scalar FogNoLB.fog[49].dispatcher remoteJobs 0
scalar FogNoLB.fog[49].dispatcher probeQueries 0
scalar FogNoLB.fog[49].dispatcher probeAnswers 0
scalar FogNoLB.fog[49].dispatcher droppedJobsSLA 0
scalar FogNoLB.fog[49].dispatcher jobs_class_1 582178
scalar FogNoLB.fog[49].dispatcher localJobs_class_1 582178
scalar FogNoLB.fog[49].server[0] rho 0.8882640004158
scalar FogNoLB.fog[49].server[0] congestionRatio 0
scalar FogNoLB.fog[49].server[0] totalJobs 582178
scalar FogNoLB.fog[49].server[0] droppedJobsQueue 136
scalar FogNoLB.fog[49].server[0] droppedJobsTimout 25038
scalar FogNoLB.fog[49].server[0] droppedJobsSLA 0
scalar FogNoLB.fog[49].server[0] droppedJobsTotal 25174
scalar FogNoLB.fog[50].dispatcher localJobs 581406
scalar FogNoLB.fog[50].dispatcher remoteJobs 0
scalar FogNoLB.fog[50].dispatcher probeQueries 0
scalar FogNoLB.fog[50].dispatcher probeAnswers 0
scalar FogNoLB.fog[50].dispatcher droppedJobsSLA 0
scalar FogNoLB.fog[50].dispatcher jobs_class_1 581406
scalar FogNoLB.fog[50].dispatcher localJobs_class_1 581406
scalar FogNoLB.fog[50].server[0] rho 0.88698375225067
scalar FogNoLB.fog[50].server[0] congestionRatio 0
scalar FogNoLB.fog[50].server[0] totalJobs 581406
scalar FogNoLB.fog[50].server[0] droppedJobsQueue 148
scalar FogNoLB.fog[50].server[0] droppedJobsTimout 25270
scalar FogNoLB.fog[50].server[0] droppedJobsSLA 0
scalar FogNoLB.fog[50].server[0] droppedJobsTotal 25418
scalar FogNoLB.fog[51].dispatcher localJobs 582636
scalar FogNoLB.fog[51].dispatcher remoteJobs 0
scalar FogNoLB.fog[51].dispatcher probeQueries 0
scalar FogNoLB.fog[51].dispatcher probeAnswers 0
scalar FogNoLB.fog[51].dispatcher droppedJobsSLA 0
scalar FogNoLB.fog[51].dispatcher jobs_class_1 582636
scalar FogNoLB.fog[51].dispatcher localJobs_class_1 582636
scalar FogNoLB.fog[51].server[0] rho 0.88875603675842
scalar FogNoLB.fog[51].server[0] congestionRatio 0
scalar FogNoLB.fog[51].server[0] totalJobs 582636
scalar FogNoLB.fog[51].server[0] droppedJobsQueue 141
scalar FogNoLB.fog[51].server[0] droppedJobsTimout 25700
scalar FogNoLB.fog[51].server[0] droppedJobsSLA 0
scalar FogNoLB.fog[51].server[0] droppedJobsTotal 25841
scalar FogNoLB.fog[52].dispatcher localJobs 581970
scalar FogNoLB.fog[52].dispatcher remoteJobs 0
scalar FogNoLB.fog[52].dispatcher probeQueries 0
scalar FogNoLB.fog[52].dispatcher probeAnswers 0
scalar FogNoLB.fog[52].dispatcher droppedJobsSLA 0
scalar FogNoLB.fog[52].dispatcher jobs_class_1 581970
scalar FogNoLB.fog[52].dispatcher localJobs_class_1 581970
scalar FogNoLB.fog[52].server[0] rho 0.88790500164032
scalar FogNoLB.fog[52].server[0] congestionRatio 0
scalar FogNoLB.fog[52].server[0] totalJobs 581970
scalar FogNoLB.fog[52].server[0] droppedJobsQueue 166
scalar FogNoLB.fog[52].server[0] droppedJobsTimout 24996
scalar FogNoLB.fog[52].server[0] droppedJobsSLA 0
scalar FogNoLB.fog[52].server[0] droppedJobsTotal 25162
scalar FogNoLB.fog[53].dispatcher localJobs 581853
scalar FogNoLB.fog[53].dispatcher remoteJobs 0
scalar FogNoLB.fog[53].dispatcher probeQueries 0
scalar FogNoLB.fog[53].dispatcher probeAnswers 0
scalar FogNoLB.fog[53].dispatcher droppedJobsSLA 0
scalar FogNoLB.fog[53].dispatcher jobs_class_1 581853
scalar FogNoLB.fog[53].dispatcher localJobs_class_1 581853
scalar FogNoLB.fog[53].server[0] rho 0.88837474584579
scalar FogNoLB.fog[53].server[0] congestionRatio 0
scalar FogNoLB.fog[53].server[0] totalJobs 581853
scalar FogNoLB.fog[53].server[0] droppedJobsQueue 154
scalar FogNoLB.fog[53].server[0] droppedJobsTimout 24494
scalar FogNoLB.fog[53].server[0] droppedJobsSLA 0
scalar FogNoLB.fog[53].server[0] droppedJobsTotal 24648
scalar FogNoLB.fog[54].dispatcher localJobs 581773
scalar FogNoLB.fog[54].dispatcher remoteJobs 0
scalar FogNoLB.fog[54].dispatcher probeQueries 0
scalar FogNoLB.fog[54].dispatcher probeAnswers 0
scalar FogNoLB.fog[54].dispatcher droppedJobsSLA 0
scalar FogNoLB.fog[54].dispatcher jobs_class_1 581773
scalar FogNoLB.fog[54].dispatcher localJobs_class_1 581773
scalar FogNoLB.fog[54].server[0] rho 0.88807618618011
scalar FogNoLB.fog[54].server[0] congestionRatio 0
scalar FogNoLB.fog[54].server[0] totalJobs 581773
scalar FogNoLB.fog[54].server[0] droppedJobsQueue 98
scalar FogNoLB.fog[54].server[0] droppedJobsTimout 24889
scalar FogNoLB.fog[54].server[0] droppedJobsSLA 0
scalar FogNoLB.fog[54].server[0] droppedJobsTotal 24987
scalar FogNoLB.fog[55].dispatcher localJobs 582789
scalar FogNoLB.fog[55].dispatcher remoteJobs 0
scalar FogNoLB.fog[55].dispatcher probeQueries 0
scalar FogNoLB.fog[55].dispatcher probeAnswers 0
scalar FogNoLB.fog[55].dispatcher droppedJobsSLA 0
scalar FogNoLB.fog[55].dispatcher jobs_class_1 582789
scalar FogNoLB.fog[55].dispatcher localJobs_class_1 582789
scalar FogNoLB.fog[55].server[0] rho 0.88926941156387
scalar FogNoLB.fog[55].server[0] congestionRatio 0
scalar FogNoLB.fog[55].server[0] totalJobs 582789
scalar FogNoLB.fog[55].server[0] droppedJobsQueue 131
scalar FogNoLB.fog[55].server[0] droppedJobsTimout 25181
scalar FogNoLB.fog[55].server[0] droppedJobsSLA 0
scalar FogNoLB.fog[55].server[0] droppedJobsTotal 25312
scalar FogNoLB.fog[56].dispatcher localJobs 581000
scalar FogNoLB.fog[56].dispatcher remoteJobs 0
scalar FogNoLB.fog[56].dispatcher probeQueries 0
scalar FogNoLB.fog[56].dispatcher probeAnswers 0
scalar FogNoLB.fog[56].dispatcher droppedJobsSLA 0
scalar FogNoLB.fog[56].dispatcher jobs_class_1 581000
scalar FogNoLB.fog[56].dispatcher localJobs_class_1 581000
scalar FogNoLB.fog[56].server[0] rho 0.88657307624817
scalar FogNoLB.fog[56].server[0] congestionRatio 0
scalar FogNoLB.fog[56].server[0] totalJobs 581000
scalar FogNoLB.fog[56].server[0] droppedJobsQueue 145
scalar FogNoLB.fog[56].server[0] droppedJobsTimout 24794
scalar FogNoLB.fog[56].server[0] droppedJobsSLA 0
scalar FogNoLB.fog[56].server[0] droppedJobsTotal 24939
scalar FogNoLB.fog[57].dispatcher localJobs 582371
scalar FogNoLB.fog[57].dispatcher remoteJobs 0
scalar FogNoLB.fog[57].dispatcher probeQueries 0
scalar FogNoLB.fog[57].dispatcher probeAnswers 0
scalar FogNoLB.fog[57].dispatcher droppedJobsSLA 0
scalar FogNoLB.fog[57].dispatcher jobs_class_1 582371
scalar FogNoLB.fog[57].dispatcher localJobs_class_1 582371
scalar FogNoLB.fog[57].server[0] rho 0.88883066177368
scalar FogNoLB.fog[57].server[0] congestionRatio 0
scalar FogNoLB.fog[57].server[0] totalJobs 582371
scalar FogNoLB.fog[57].server[0] droppedJobsQueue 132
scalar FogNoLB.fog[57].server[0] droppedJobsTimout 24984
scalar FogNoLB.fog[57].server[0] droppedJobsSLA 0
scalar FogNoLB.fog[57].server[0] droppedJobsTotal 25116
scalar FogNoLB.fog[58].dispatcher localJobs 583026
scalar FogNoLB.fog[58].dispatcher remoteJobs 0
scalar FogNoLB.fog[58].dispatcher probeQueries 0
scalar FogNoLB.fog[58].dispatcher probeAnswers 0
scalar FogNoLB.fog[58].dispatcher droppedJobsSLA 0
scalar FogNoLB.fog[58].dispatcher jobs_class_1 583026
scalar FogNoLB.fog[58].dispatcher localJobs_class_1 583026
scalar FogNoLB.fog[58].server[0] rho 0.88999378681183
scalar FogNoLB.fog[58].server[0] congestionRatio 0
scalar FogNoLB.fog[58].server[0] totalJobs 583026
scalar FogNoLB.fog[58].server[0] droppedJobsQueue 133
scalar FogNoLB.fog[58].server[0] droppedJobsTimout 24688
scalar FogNoLB.fog[58].server[0] droppedJobsSLA 0
scalar FogNoLB.fog[58].server[0] droppedJobsTotal 24821
scalar FogNoLB.fog[59].dispatcher localJobs 581882
scalar FogNoLB.fog[59].dispatcher remoteJobs 0
scalar FogNoLB.fog[59].dispatcher probeQueries 0
scalar FogNoLB.fog[59].dispatcher probeAnswers 0
scalar FogNoLB.fog[59].dispatcher droppedJobsSLA 0
scalar FogNoLB.fog[59].dispatcher jobs_class_1 581882
scalar FogNoLB.fog[59].dispatcher localJobs_class_1 581882
scalar FogNoLB.fog[59].server[0] rho 0.88820630311966
scalar FogNoLB.fog[59].server[0] congestionRatio 0
scalar FogNoLB.fog[59].server[0] totalJobs 581882
scalar FogNoLB.fog[59].server[0] droppedJobsQueue 136
scalar FogNoLB.fog[59].server[0] droppedJobsTimout 24858
scalar FogNoLB.fog[59].server[0] droppedJobsSLA 0
scalar FogNoLB.fog[59].server[0] droppedJobsTotal 24994
scalar FogNoLB.fog[60].dispatcher localJobs 583259
scalar FogNoLB.fog[60].dispatcher remoteJobs 0
scalar FogNoLB.fog[60].dispatcher probeQueries 0
scalar FogNoLB.fog[60].dispatcher probeAnswers 0
scalar FogNoLB.fog[60].dispatcher droppedJobsSLA 0
scalar FogNoLB.fog[60].dispatcher jobs_class_1 583259
scalar FogNoLB.fog[60].dispatcher localJobs_class_1 583259
scalar FogNoLB.fog[60].server[0] rho 0.88976895809174
scalar FogNoLB.fog[60].server[0] congestionRatio 0
scalar FogNoLB.fog[60].server[0] totalJobs 583259
scalar FogNoLB.fog[60].server[0] droppedJobsQueue 144
scalar FogNoLB.fog[60].server[0] droppedJobsTimout 25967
scalar FogNoLB.fog[60].server[0] droppedJobsSLA 0
scalar FogNoLB.fog[60].server[0] droppedJobsTotal 26111
scalar FogNoLB.fog[61].dispatcher localJobs 582315
scalar FogNoLB.fog[61].dispatcher remoteJobs 0
scalar FogNoLB.fog[61].dispatcher probeQueries 0
scalar FogNoLB.fog[61].dispatcher probeAnswers 0
scalar FogNoLB.fog[61].dispatcher droppedJobsSLA 0
scalar FogNoLB.fog[61].dispatcher jobs_class_1 582315
scalar FogNoLB.fog[61].dispatcher localJobs_class_1 582315
scalar FogNoLB.fog[61].server[0] rho 0.88834196329117
scalar FogNoLB.fog[61].server[0] congestionRatio 0
scalar FogNoLB.fog[61].server[0] totalJobs 582315
scalar FogNoLB.fog[61].server[0] droppedJobsQueue 152
scalar FogNoLB.fog[61].server[0] droppedJobsTimout 25642
scalar FogNoLB.fog[61].server[0] droppedJobsSLA 0
scalar FogNoLB.fog[61].server[0] droppedJobsTotal 25794
scalar FogNoLB.fog[62].dispatcher localJobs 583266
scalar FogNoLB.fog[62].dispatcher remoteJobs 0
scalar FogNoLB.fog[62].dispatcher probeQueries 0
scalar FogNoLB.fog[62].dispatcher probeAnswers 0
scalar FogNoLB.fog[62].dispatcher droppedJobsSLA 0
scalar FogNoLB.fog[62].dispatcher jobs_class_1 583266
scalar FogNoLB.fog[62].dispatcher localJobs_class_1 583266
scalar FogNoLB.fog[62].server[0] rho 0.88904565572739
scalar FogNoLB.fog[62].server[0] congestionRatio 0
scalar FogNoLB.fog[62].server[0] totalJobs 583266
scalar FogNoLB.fog[62].server[0] droppedJobsQueue 179
scalar FogNoLB.fog[62].server[0] droppedJobsTimout 26916
scalar FogNoLB.fog[62].server[0] droppedJobsSLA 0
scalar FogNoLB.fog[62].server[0] droppedJobsTotal 27095
scalar FogNoLB.fog[63].dispatcher localJobs 581936
scalar FogNoLB.fog[63].dispatcher remoteJobs 0
scalar FogNoLB.fog[63].dispatcher probeQueries 0
scalar FogNoLB.fog[63].dispatcher probeAnswers 0
scalar FogNoLB.fog[63].dispatcher droppedJobsSLA 0
scalar FogNoLB.fog[63].dispatcher jobs_class_1 581936
scalar FogNoLB.fog[63].dispatcher localJobs_class_1 581936
scalar FogNoLB.fog[63].server[0] rho 0.88734477758408
scalar FogNoLB.fog[63].server[0] congestionRatio 0
scalar FogNoLB.fog[63].server[0] totalJobs 581936
scalar FogNoLB.fog[63].server[0] droppedJobsQueue 165
scalar FogNoLB.fog[63].server[0] droppedJobsTimout 26067
scalar FogNoLB.fog[63].server[0] droppedJobsSLA 0
scalar FogNoLB.fog[63].server[0] droppedJobsTotal 26232
scalar FogNoLB.fog[64].dispatcher localJobs 582166
scalar FogNoLB.fog[64].dispatcher remoteJobs 0
scalar FogNoLB.fog[64].dispatcher probeQueries 0
scalar FogNoLB.fog[64].dispatcher probeAnswers 0
scalar FogNoLB.fog[64].dispatcher droppedJobsSLA 0
scalar FogNoLB.fog[64].dispatcher jobs_class_1 582166
scalar FogNoLB.fog[64].dispatcher localJobs_class_1 582166
scalar FogNoLB.fog[64].server[0] rho 0.88792550563812
scalar FogNoLB.fog[64].server[0] congestionRatio 0
scalar FogNoLB.fog[64].server[0] totalJobs 582166
scalar FogNoLB.fog[64].server[0] droppedJobsQueue 159
scalar FogNoLB.fog[64].server[0] droppedJobsTimout 25832
scalar FogNoLB.fog[64].server[0] droppedJobsSLA 0
scalar FogNoLB.fog[64].server[0] droppedJobsTotal 25991
scalar FogNoLB.fog[65].dispatcher localJobs 581424
scalar FogNoLB.fog[65].dispatcher remoteJobs 0
scalar FogNoLB.fog[65].dispatcher probeQueries 0
scalar FogNoLB.fog[65].dispatcher probeAnswers 0
scalar FogNoLB.fog[65].dispatcher droppedJobsSLA 0
scalar FogNoLB.fog[65].dispatcher jobs_class_1 581424
scalar FogNoLB.fog[65].dispatcher localJobs_class_1 581424
scalar FogNoLB.fog[65].server[0] rho 0.88716298341751
scalar FogNoLB.fog[65].server[0] congestionRatio 0
scalar FogNoLB.fog[65].server[0] totalJobs 581424
scalar FogNoLB.fog[65].server[0] droppedJobsQueue 156
scalar FogNoLB.fog[65].server[0] droppedJobsTimout 25172
scalar FogNoLB.fog[65].server[0] droppedJobsSLA 0
scalar FogNoLB.fog[65].server[0] droppedJobsTotal 25328
scalar FogNoLB.fog[66].dispatcher localJobs 583138
scalar FogNoLB.fog[66].dispatcher remoteJobs 0
scalar FogNoLB.fog[66].dispatcher probeQueries 0
scalar FogNoLB.fog[66].dispatcher probeAnswers 0
scalar FogNoLB.fog[66].dispatcher droppedJobsSLA 0
scalar FogNoLB.fog[66].dispatcher jobs_class_1 583138
scalar FogNoLB.fog[66].dispatcher localJobs_class_1 583138
scalar FogNoLB.fog[66].server[0] rho 0.88957947492599
scalar FogNoLB.fog[66].server[0] congestionRatio 0
scalar FogNoLB.fog[66].server[0] totalJobs 583138
scalar FogNoLB.fog[66].server[0] droppedJobsQueue 142
scalar FogNoLB.fog[66].server[0] droppedJobsTimout 25643
scalar FogNoLB.fog[66].server[0] droppedJobsSLA 0
scalar FogNoLB.fog[66].server[0] droppedJobsTotal 25785
scalar FogNoLB.fog[67].dispatcher localJobs 582627
scalar FogNoLB.fog[67].dispatcher remoteJobs 0
scalar FogNoLB.fog[67].dispatcher probeQueries 0
scalar FogNoLB.fog[67].dispatcher probeAnswers 0
scalar FogNoLB.fog[67].dispatcher droppedJobsSLA 0
scalar FogNoLB.fog[67].dispatcher jobs_class_1 582627
scalar FogNoLB.fog[67].dispatcher localJobs_class_1 582627
scalar FogNoLB.fog[67].server[0] rho 0.88913261890411
scalar FogNoLB.fog[67].server[0] congestionRatio 0
scalar FogNoLB.fog[67].server[0] totalJobs 582627
scalar FogNoLB.fog[67].server[0] droppedJobsQueue 147
scalar FogNoLB.fog[67].server[0] droppedJobsTimout 25128
scalar FogNoLB.fog[67].server[0] droppedJobsSLA 0
scalar FogNoLB.fog[67].server[0] droppedJobsTotal 25275
scalar FogNoLB.fog[68].dispatcher localJobs 583301
scalar FogNoLB.fog[68].dispatcher remoteJobs 0
scalar FogNoLB.fog[68].dispatcher probeQueries 0
scalar FogNoLB.fog[68].dispatcher probeAnswers 0
scalar FogNoLB.fog[68].dispatcher droppedJobsSLA 0
scalar FogNoLB.fog[68].dispatcher jobs_class_1 583301
scalar FogNoLB.fog[68].dispatcher localJobs_class_1 583301
scalar FogNoLB.fog[68].server[0] rho 0.88959676027298
scalar FogNoLB.fog[68].server[0] congestionRatio 0
scalar FogNoLB.fog[68].server[0] totalJobs 583301
scalar FogNoLB.fog[68].server[0] droppedJobsQueue 139
scalar FogNoLB.fog[68].server[0] droppedJobsTimout 26371
scalar FogNoLB.fog[68].server[0] droppedJobsSLA 0
scalar FogNoLB.fog[68].server[0] droppedJobsTotal 26510
scalar FogNoLB.fog[69].dispatcher localJobs 582185
scalar FogNoLB.fog[69].dispatcher remoteJobs 0
scalar FogNoLB.fog[69].dispatcher probeQueries 0
scalar FogNoLB.fog[69].dispatcher probeAnswers 0
scalar FogNoLB.fog[69].dispatcher droppedJobsSLA 0
scalar FogNoLB.fog[69].dispatcher jobs_class_1 582185
scalar FogNoLB.fog[69].dispatcher localJobs_class_1 582185
scalar FogNoLB.fog[69].server[0] rho 0.88797324895859
scalar FogNoLB.fog[69].server[0] congestionRatio 0
scalar FogNoLB.fog[69].server[0] totalJobs 582185
scalar FogNoLB.fog[69].server[0] droppedJobsQueue 160
scalar FogNoLB.fog[69].server[0] droppedJobsTimout 25891
scalar FogNoLB.fog[69].server[0] droppedJobsSLA 0
scalar FogNoLB.fog[69].server[0] droppedJobsTotal 26051
scalar FogNoLB.fog[70].dispatcher localJobs 582795
scalar FogNoLB.fog[70].dispatcher remoteJobs 0
scalar FogNoLB.fog[70].dispatcher probeQueries 0
scalar FogNoLB.fog[70].dispatcher probeAnswers 0
scalar FogNoLB.fog[70].dispatcher droppedJobsSLA 0
scalar FogNoLB.fog[70].dispatcher jobs_class_1 582795
scalar FogNoLB.fog[70].dispatcher localJobs_class_1 582795
scalar FogNoLB.fog[70].server[0] rho 0.88952225446701
scalar FogNoLB.fog[70].server[0] congestionRatio 0
scalar FogNoLB.fog[70].server[0] totalJobs 582795
scalar FogNoLB.fog[70].server[0] droppedJobsQueue 138
scalar FogNoLB.fog[70].server[0] droppedJobsTimout 24913
scalar FogNoLB.fog[70].server[0] droppedJobsSLA 0
scalar FogNoLB.fog[70].server[0] droppedJobsTotal 25051
scalar FogNoLB.fog[71].dispatcher localJobs 582920
scalar FogNoLB.fog[71].dispatcher remoteJobs 0
scalar FogNoLB.fog[71].dispatcher probeQueries 0
scalar FogNoLB.fog[71].dispatcher probeAnswers 0
scalar FogNoLB.fog[71].dispatcher droppedJobsSLA 0
scalar FogNoLB.fog[71].dispatcher jobs_class_1 582920
scalar FogNoLB.fog[71].dispatcher localJobs_class_1 582920
scalar FogNoLB.fog[71].server[0] rho 0.88964337110519
scalar FogNoLB.fog[71].server[0] congestionRatio 0
scalar FogNoLB.fog[71].server[0] totalJobs 582920
scalar FogNoLB.fog[71].server[0] droppedJobsQueue 125
scalar FogNoLB.fog[71].server[0] droppedJobsTimout 25126
scalar FogNoLB.fog[71].server[0] droppedJobsSLA 0
scalar FogNoLB.fog[71].server[0] droppedJobsTotal 25251
scalar FogNoLB.fog[72].dispatcher localJobs 581350
scalar FogNoLB.fog[72].dispatcher remoteJobs 0
scalar FogNoLB.fog[72].dispatcher probeQueries 0
scalar FogNoLB.fog[72].dispatcher probeAnswers 0
scalar FogNoLB.fog[72].dispatcher droppedJobsSLA 0
scalar FogNoLB.fog[72].dispatcher jobs_class_1 581350
scalar FogNoLB.fog[72].dispatcher localJobs_class_1 581350
scalar FogNoLB.fog[72].server[0] rho 0.88721752166748
scalar FogNoLB.fog[72].server[0] congestionRatio 0
scalar FogNoLB.fog[72].server[0] totalJobs 581350
scalar FogNoLB.fog[72].server[0] droppedJobsQueue 150
scalar FogNoLB.fog[72].server[0] droppedJobsTimout 24745
scalar FogNoLB.fog[72].server[0] droppedJobsSLA 0
scalar FogNoLB.fog[72].server[0] droppedJobsTotal 24895
scalar FogNoLB.fog[73].dispatcher localJobs 581801
scalar FogNoLB.fog[73].dispatcher remoteJobs 0
scalar FogNoLB.fog[73].dispatcher probeQueries 0
scalar FogNoLB.fog[73].dispatcher probeAnswers 0
scalar FogNoLB.fog[73].dispatcher droppedJobsSLA 0
scalar FogNoLB.fog[73].dispatcher jobs_class_1 581801
scalar FogNoLB.fog[73].dispatcher localJobs_class_1 581801
scalar FogNoLB.fog[73].server[0] rho 0.8882542848587
scalar FogNoLB.fog[73].server[0] congestionRatio 0
scalar FogNoLB.fog[73].server[0] totalJobs 581801
scalar FogNoLB.fog[73].server[0] droppedJobsQueue 125
scalar FogNoLB.fog[73].server[0] droppedJobsTimout 24184
scalar FogNoLB.fog[73].server[0] droppedJobsSLA 0
scalar FogNoLB.fog[73].server[0] droppedJobsTotal 24309
scalar FogNoLB.fog[74].dispatcher localJobs 583587
scalar FogNoLB.fog[74].dispatcher remoteJobs 0
scalar FogNoLB.fog[74].dispatcher probeQueries 0
scalar FogNoLB.fog[74].dispatcher probeAnswers 0
scalar FogNoLB.fog[74].dispatcher droppedJobsSLA 0
scalar FogNoLB.fog[74].dispatcher jobs_class_1 583587
scalar FogNoLB.fog[74].dispatcher localJobs_class_1 583587
scalar FogNoLB.fog[74].server[0] rho 0.88952946662903
scalar FogNoLB.fog[74].server[0] congestionRatio 0
scalar FogNoLB.fog[74].server[0] totalJobs 583587
scalar FogNoLB.fog[74].server[0] droppedJobsQueue 170
scalar FogNoLB.fog[74].server[0] droppedJobsTimout 27038
scalar FogNoLB.fog[74].server[0] droppedJobsSLA 0
scalar FogNoLB.fog[74].server[0] droppedJobsTotal 27208
scalar FogNoLB.fog[75].dispatcher localJobs 582207
scalar FogNoLB.fog[75].dispatcher remoteJobs 0
scalar FogNoLB.fog[75].dispatcher probeQueries 0
scalar FogNoLB.fog[75].dispatcher probeAnswers 0
scalar FogNoLB.fog[75].dispatcher droppedJobsSLA 0
scalar FogNoLB.fog[75].dispatcher jobs_class_1 582207
scalar FogNoLB.fog[75].dispatcher localJobs_class_1 582207
scalar FogNoLB.fog[75].server[0] rho 0.88836520910263
scalar FogNoLB.fog[75].server[0] congestionRatio 0
scalar FogNoLB.fog[75].server[0] totalJobs 582207
scalar FogNoLB.fog[75].server[0] droppedJobsQueue 144
scalar FogNoLB.fog[75].server[0] droppedJobsTimout 24929
scalar FogNoLB.fog[75].server[0] droppedJobsSLA 0
scalar FogNoLB.fog[75].server[0] droppedJobsTotal 25073
scalar FogNoLB.fog[76].dispatcher localJobs 582046
scalar FogNoLB.fog[76].dispatcher remoteJobs 0
scalar FogNoLB.fog[76].dispatcher probeQueries 0
scalar FogNoLB.fog[76].dispatcher probeAnswers 0
scalar FogNoLB.fog[76].dispatcher droppedJobsSLA 0
scalar FogNoLB.fog[76].dispatcher jobs_class_1 582046
scalar FogNoLB.fog[76].dispatcher localJobs_class_1 582046
scalar FogNoLB.fog[76].server[0] rho 0.88854831457138
scalar FogNoLB.fog[76].server[0] congestionRatio 0
scalar FogNoLB.fog[76].server[0] totalJobs 582046
scalar FogNoLB.fog[76].server[0] droppedJobsQueue 138
scalar FogNoLB.fog[76].server[0] droppedJobsTimout 24185
scalar FogNoLB.fog[76].server[0] droppedJobsSLA 0
scalar FogNoLB.fog[76].server[0] droppedJobsTotal 24323
scalar FogNoLB.fog[77].dispatcher localJobs 581824
scalar FogNoLB.fog[77].dispatcher remoteJobs 0
scalar FogNoLB.fog[77].dispatcher probeQueries 0
scalar FogNoLB.fog[77].dispatcher probeAnswers 0
scalar FogNoLB.fog[77].dispatcher droppedJobsSLA 0
scalar FogNoLB.fog[77].dispatcher jobs_class_1 581824
scalar FogNoLB.fog[77].dispatcher localJobs_class_1 581824
scalar FogNoLB.fog[77].server[0] rho 0.88753408193588
scalar FogNoLB.fog[77].server[0] congestionRatio 0
scalar FogNoLB.fog[77].server[0] totalJobs 581824
scalar FogNoLB.fog[77].server[0] droppedJobsQueue 149
scalar FogNoLB.fog[77].server[0] droppedJobsTimout 25638
scalar FogNoLB.fog[77].server[0] droppedJobsSLA 0
scalar FogNoLB.fog[77].server[0] droppedJobsTotal 25787
scalar FogNoLB.fog[78].dispatcher localJobs 582425
scalar FogNoLB.fog[78].dispatcher remoteJobs 0
scalar FogNoLB.fog[78].dispatcher probeQueries 0
scalar FogNoLB.fog[78].dispatcher probeAnswers 0
scalar FogNoLB.fog[78].dispatcher droppedJobsSLA 0
scalar FogNoLB.fog[78].dispatcher jobs_class_1 582425
scalar FogNoLB.fog[78].dispatcher localJobs_class_1 582425
scalar FogNoLB.fog[78].server[0] rho 0.88917511701584
scalar FogNoLB.fog[78].server[0] congestionRatio 0
scalar FogNoLB.fog[78].server[0] totalJobs 582425
scalar FogNoLB.fog[78].server[0] droppedJobsQueue 118
scalar FogNoLB.fog[78].server[0] droppedJobsTimout 24524
scalar FogNoLB.fog[78].server[0] droppedJobsSLA 0
scalar FogNoLB.fog[78].server[0] droppedJobsTotal 24642
scalar FogNoLB.fog[79].dispatcher localJobs 582607
scalar FogNoLB.fog[79].dispatcher remoteJobs 0
scalar FogNoLB.fog[79].dispatcher probeQueries 0
scalar FogNoLB.fog[79].dispatcher probeAnswers 0
scalar FogNoLB.fog[79].dispatcher droppedJobsSLA 0
scalar FogNoLB.fog[79].dispatcher jobs_class_1 582607
scalar FogNoLB.fog[79].dispatcher localJobs_class_1 582607
scalar FogNoLB.fog[79].server[0] rho 0.88909792900085
scalar FogNoLB.fog[79].server[0] congestionRatio 0
scalar FogNoLB.fog[79].server[0] totalJobs 582607
scalar FogNoLB.fog[79].server[0] droppedJobsQueue 144
scalar FogNoLB.fog[79].server[0] droppedJobsTimout 25001
scalar FogNoLB.fog[79].server[0] droppedJobsSLA 0
scalar FogNoLB.fog[79].server[0] droppedJobsTotal 25145
scalar FogNoLB.fog[80].dispatcher localJobs 582230
scalar FogNoLB.fog[80].dispatcher remoteJobs 0
scalar FogNoLB.fog[80].dispatcher probeQueries 0
scalar FogNoLB.fog[80].dispatcher probeAnswers 0
scalar FogNoLB.fog[80].dispatcher droppedJobsSLA 0
scalar FogNoLB.fog[80].dispatcher jobs_class_1 582230
scalar FogNoLB.fog[80].dispatcher localJobs_class_1 582230
scalar FogNoLB.fog[80].server[0] rho 0.88782525062561
scalar FogNoLB.fog[80].server[0] congestionRatio 0
scalar FogNoLB.fog[80].server[0] totalJobs 582230
scalar FogNoLB.fog[80].server[0] droppedJobsQueue 173
scalar FogNoLB.fog[80].server[0] droppedJobsTimout 26274
scalar FogNoLB.fog[80].server[0] droppedJobsSLA 0
scalar FogNoLB.fog[80].server[0] droppedJobsTotal 26447
scalar FogNoLB.fog[81].dispatcher localJobs 581742
scalar FogNoLB.fog[81].dispatcher remoteJobs 0
scalar FogNoLB.fog[81].dispatcher probeQueries 0
scalar FogNoLB.fog[81].dispatcher probeAnswers 0
scalar FogNoLB.fog[81].dispatcher droppedJobsSLA 0
scalar FogNoLB.fog[81].dispatcher jobs_class_1 581742
scalar FogNoLB.fog[81].dispatcher localJobs_class_1 581742
scalar FogNoLB.fog[81].server[0] rho 0.88786572217941
scalar FogNoLB.fog[81].server[0] congestionRatio 0
scalar FogNoLB.fog[81].server[0] totalJobs 581742
scalar FogNoLB.fog[81].server[0] droppedJobsQueue 132
scalar FogNoLB.fog[81].server[0] droppedJobsTimout 25282
scalar FogNoLB.fog[81].server[0] droppedJobsSLA 0
scalar FogNoLB.fog[81].server[0] droppedJobsTotal 25414
scalar FogNoLB.fog[82].dispatcher localJobs 581862
scalar FogNoLB.fog[82].dispatcher remoteJobs 0
scalar FogNoLB.fog[82].dispatcher probeQueries 0
scalar FogNoLB.fog[82].dispatcher probeAnswers 0
scalar FogNoLB.fog[82].dispatcher droppedJobsSLA 0
scalar FogNoLB.fog[82].dispatcher jobs_class_1 581862
scalar FogNoLB.fog[82].dispatcher localJobs_class_1 581862
scalar FogNoLB.fog[82].server[0] rho 0.88828760385513
scalar FogNoLB.fog[82].server[0] congestionRatio 0
scalar FogNoLB.fog[82].server[0] totalJobs 581862
scalar FogNoLB.fog[82].server[0] droppedJobsQueue 144
scalar FogNoLB.fog[82].server[0] droppedJobsTimout 24404
scalar FogNoLB.fog[82].server[0] droppedJobsSLA 0
scalar FogNoLB.fog[82].server[0] droppedJobsTotal 24548
scalar FogNoLB.fog[83].dispatcher localJobs 582196
scalar FogNoLB.fog[83].dispatcher remoteJobs 0
scalar FogNoLB.fog[83].dispatcher probeQueries 0
scalar FogNoLB.fog[83].dispatcher probeAnswers 0
scalar FogNoLB.fog[83].dispatcher droppedJobsSLA 0
scalar FogNoLB.fog[83].dispatcher jobs_class_1 582196
scalar FogNoLB.fog[83].dispatcher localJobs_class_1 582196
scalar FogNoLB.fog[83].server[0] rho 0.88845860958099
scalar FogNoLB.fog[83].server[0] congestionRatio 0
scalar FogNoLB.fog[83].server[0] totalJobs 582196
scalar FogNoLB.fog[83].server[0] droppedJobsQueue 136
scalar FogNoLB.fog[83].server[0] droppedJobsTimout 24861
scalar FogNoLB.fog[83].server[0] droppedJobsSLA 0
scalar FogNoLB.fog[83].server[0] droppedJobsTotal 24997
scalar FogNoLB.fog[84].dispatcher localJobs 581055
scalar FogNoLB.fog[84].dispatcher remoteJobs 0
scalar FogNoLB.fog[84].dispatcher probeQueries 0
scalar FogNoLB.fog[84].dispatcher probeAnswers 0
scalar FogNoLB.fog[84].dispatcher droppedJobsSLA 0
scalar FogNoLB.fog[84].dispatcher jobs_class_1 581055
scalar FogNoLB.fog[84].dispatcher localJobs_class_1 581055
scalar FogNoLB.fog[84].server[0] rho 0.88679546117783
scalar FogNoLB.fog[84].server[0] congestionRatio 0
scalar FogNoLB.fog[84].server[0] totalJobs 581055
scalar FogNoLB.fog[84].server[0] droppedJobsQueue 147
scalar FogNoLB.fog[84].server[0] droppedJobsTimout 24656
scalar FogNoLB.fog[84].server[0] droppedJobsSLA 0
scalar FogNoLB.fog[84].server[0] droppedJobsTotal 24803
scalar FogNoLB.fog[85].dispatcher localJobs 581346
scalar FogNoLB.fog[85].dispatcher remoteJobs 0
scalar FogNoLB.fog[85].dispatcher probeQueries 0
scalar FogNoLB.fog[85].dispatcher probeAnswers 0
scalar FogNoLB.fog[85].dispatcher droppedJobsSLA 0
scalar FogNoLB.fog[85].dispatcher jobs_class_1 581346
scalar FogNoLB.fog[85].dispatcher localJobs_class_1 581346
scalar FogNoLB.fog[85].server[0] rho 0.88684582710266
scalar FogNoLB.fog[85].server[0] congestionRatio 0
scalar FogNoLB.fog[85].server[0] totalJobs 581346
scalar FogNoLB.fog[85].server[0] droppedJobsQueue 163
scalar FogNoLB.fog[85].server[0] droppedJobsTimout 25202
scalar FogNoLB.fog[85].server[0] droppedJobsSLA 0
scalar FogNoLB.fog[85].server[0] droppedJobsTotal 25365
scalar FogNoLB.fog[86].dispatcher localJobs 582642
scalar FogNoLB.fog[86].dispatcher remoteJobs 0
scalar FogNoLB.fog[86].dispatcher probeQueries 0
scalar FogNoLB.fog[86].dispatcher probeAnswers 0
scalar FogNoLB.fog[86].dispatcher droppedJobsSLA 0
scalar FogNoLB.fog[86].dispatcher jobs_class_1 582642
scalar FogNoLB.fog[86].dispatcher localJobs_class_1 582642
scalar FogNoLB.fog[86].server[0] rho 0.88886278867722
scalar FogNoLB.fog[86].server[0] congestionRatio 0
scalar FogNoLB.fog[86].server[0] totalJobs 582642
scalar FogNoLB.fog[86].server[0] droppedJobsQueue 188
scalar FogNoLB.fog[86].server[0] droppedJobsTimout 25574
scalar FogNoLB.fog[86].server[0] droppedJobsSLA 0
scalar FogNoLB.fog[86].server[0] droppedJobsTotal 25762
scalar FogNoLB.fog[87].dispatcher localJobs 582266
scalar FogNoLB.fog[87].dispatcher remoteJobs 0
scalar FogNoLB.fog[87].dispatcher probeQueries 0
scalar FogNoLB.fog[87].dispatcher probeAnswers 0
scalar FogNoLB.fog[87].dispatcher droppedJobsSLA 0
scalar FogNoLB.fog[87].dispatcher jobs_class_1 582266
scalar FogNoLB.fog[87].dispatcher localJobs_class_1 582266
scalar FogNoLB.fog[87].server[0] rho 0.88842219114304
scalar FogNoLB.fog[87].server[0] congestionRatio 0
scalar FogNoLB.fog[87].server[0] totalJobs 582266
scalar FogNoLB.fog[87].server[0] droppedJobsQueue 157
scalar FogNoLB.fog[87].server[0] droppedJobsTimout 25381
scalar FogNoLB.fog[87].server[0] droppedJobsSLA 0
scalar FogNoLB.fog[87].server[0] droppedJobsTotal 25538
scalar FogNoLB.fog[88].dispatcher localJobs 581409
scalar FogNoLB.fog[88].dispatcher remoteJobs 0
scalar FogNoLB.fog[88].dispatcher probeQueries 0
scalar FogNoLB.fog[88].dispatcher probeAnswers 0
scalar FogNoLB.fog[88].dispatcher droppedJobsSLA 0
scalar FogNoLB.fog[88].dispatcher jobs_class_1 581409
scalar FogNoLB.fog[88].dispatcher localJobs_class_1 581409
scalar FogNoLB.fog[88].server[0] rho 0.8874579668045
scalar FogNoLB.fog[88].server[0] congestionRatio 0
scalar FogNoLB.fog[88].server[0] totalJobs 581409
scalar FogNoLB.fog[88].server[0] droppedJobsQueue 147
scalar FogNoLB.fog[88].server[0] droppedJobsTimout 24677
scalar FogNoLB.fog[88].server[0] droppedJobsSLA 0
scalar FogNoLB.fog[88].server[0] droppedJobsTotal 24824
scalar FogNoLB.fog[89].dispatcher localJobs 580792
scalar FogNoLB.fog[89].dispatcher remoteJobs 0
scalar FogNoLB.fog[89].dispatcher probeQueries 0
scalar FogNoLB.fog[89].dispatcher probeAnswers 0
scalar FogNoLB.fog[89].dispatcher droppedJobsSLA 0
scalar FogNoLB.fog[89].dispatcher jobs_class_1 580792
scalar FogNoLB.fog[89].dispatcher localJobs_class_1 580792
scalar FogNoLB.fog[89].server[0] rho 0.88638961315155
scalar FogNoLB.fog[89].server[0] congestionRatio 0
scalar FogNoLB.fog[89].server[0] totalJobs 580792
scalar FogNoLB.fog[89].server[0] droppedJobsQueue 145
scalar FogNoLB.fog[89].server[0] droppedJobsTimout 24936
scalar FogNoLB.fog[89].server[0] droppedJobsSLA 0
scalar FogNoLB.fog[89].server[0] droppedJobsTotal 25081
scalar FogNoLB.fog[90].dispatcher localJobs 583173
scalar FogNoLB.fog[90].dispatcher remoteJobs 0
scalar FogNoLB.fog[90].dispatcher probeQueries 0
scalar FogNoLB.fog[90].dispatcher probeAnswers 0
scalar FogNoLB.fog[90].dispatcher droppedJobsSLA 0
scalar FogNoLB.fog[90].dispatcher jobs_class_1 583173
scalar FogNoLB.fog[90].dispatcher localJobs_class_1 583173
scalar FogNoLB.fog[90].server[0] rho 0.88971227407455
scalar FogNoLB.fog[90].server[0] congestionRatio 0
scalar FogNoLB.fog[90].server[0] totalJobs 583173
scalar FogNoLB.fog[90].server[0] droppedJobsQueue 130
scalar FogNoLB.fog[90].server[0] droppedJobsTimout 25972
scalar FogNoLB.fog[90].server[0] droppedJobsSLA 0
scalar FogNoLB.fog[90].server[0] droppedJobsTotal 26102
scalar FogNoLB.fog[91].dispatcher localJobs 582680
scalar FogNoLB.fog[91].dispatcher remoteJobs 0
scalar FogNoLB.fog[91].dispatcher probeQueries 0
scalar FogNoLB.fog[91].dispatcher probeAnswers 0
scalar FogNoLB.fog[91].dispatcher droppedJobsSLA 0
scalar FogNoLB.fog[91].dispatcher jobs_class_1 582680
scalar FogNoLB.fog[91].dispatcher localJobs_class_1 582680
scalar FogNoLB.fog[91].server[0] rho 0.88835573196411
scalar FogNoLB.fog[91].server[0] congestionRatio 0
scalar FogNoLB.fog[91].server[0] totalJobs 582680
scalar FogNoLB.fog[91].server[0] droppedJobsQueue 187
scalar FogNoLB.fog[91].server[0] droppedJobsTimout 26318
scalar FogNoLB.fog[91].server[0] droppedJobsSLA 0
scalar FogNoLB.fog[91].server[0] droppedJobsTotal 26505
scalar FogNoLB.fog[92].dispatcher localJobs 581290
scalar FogNoLB.fog[92].dispatcher remoteJobs 0
scalar FogNoLB.fog[92].dispatcher probeQueries 0
scalar FogNoLB.fog[92].dispatcher probeAnswers 0
scalar FogNoLB.fog[92].dispatcher droppedJobsSLA 0
scalar FogNoLB.fog[92].dispatcher jobs_class_1 581290
scalar FogNoLB.fog[92].dispatcher localJobs_class_1 581290
scalar FogNoLB.fog[92].server[0] rho 0.88725930452347
scalar FogNoLB.fog[92].server[0] congestionRatio 0
scalar FogNoLB.fog[92].server[0] totalJobs 581290
scalar FogNoLB.fog[92].server[0] droppedJobsQueue 157
scalar FogNoLB.fog[92].server[0] droppedJobsTimout 24773
scalar FogNoLB.fog[92].server[0] droppedJobsSLA 0
scalar FogNoLB.fog[92].server[0] droppedJobsTotal 24930
scalar FogNoLB.fog[93].dispatcher localJobs 581994
scalar FogNoLB.fog[93].dispatcher remoteJobs 0
scalar FogNoLB.fog[93].dispatcher probeQueries 0
scalar FogNoLB.fog[93].dispatcher probeAnswers 0
scalar FogNoLB.fog[93].dispatcher droppedJobsSLA 0
scalar FogNoLB.fog[93].dispatcher jobs_class_1 581994
scalar FogNoLB.fog[93].dispatcher localJobs_class_1 581994
scalar FogNoLB.fog[93].server[0] rho 0.88869178295135
scalar FogNoLB.fog[93].server[0] congestionRatio 0
scalar FogNoLB.fog[93].server[0] totalJobs 581994
scalar FogNoLB.fog[93].server[0] droppedJobsQueue 130
scalar FogNoLB.fog[93].server[0] droppedJobsTimout 24049
scalar FogNoLB.fog[93].server[0] droppedJobsSLA 0
scalar FogNoLB.fog[93].server[0] droppedJobsTotal 24179
scalar FogNoLB.fog[94].dispatcher localJobs 583074
scalar FogNoLB.fog[94].dispatcher remoteJobs 0
scalar FogNoLB.fog[94].dispatcher probeQueries 0
scalar FogNoLB.fog[94].dispatcher probeAnswers 0
scalar FogNoLB.fog[94].dispatcher droppedJobsSLA 0
scalar FogNoLB.fog[94].dispatcher jobs_class_1 583074
scalar FogNoLB.fog[94].dispatcher localJobs_class_1 583074
scalar FogNoLB.fog[94].server[0] rho 0.88910847902298
scalar FogNoLB.fog[94].server[0] congestionRatio 0
scalar FogNoLB.fog[94].server[0] totalJobs 583074
scalar FogNoLB.fog[94].server[0] droppedJobsQueue 138
scalar FogNoLB.fog[94].server[0] droppedJobsTimout 26395
scalar FogNoLB.fog[94].server[0] droppedJobsSLA 0
scalar FogNoLB.fog[94].server[0] droppedJobsTotal 26533
scalar FogNoLB.fog[95].dispatcher localJobs 580664
scalar FogNoLB.fog[95].dispatcher remoteJobs 0
scalar FogNoLB.fog[95].dispatcher probeQueries 0
scalar FogNoLB.fog[95].dispatcher probeAnswers 0
scalar FogNoLB.fog[95].dispatcher droppedJobsSLA 0
scalar FogNoLB.fog[95].dispatcher jobs_class_1 580664
scalar FogNoLB.fog[95].dispatcher localJobs_class_1 580664
scalar FogNoLB.fog[95].server[0] rho 0.88648992776871
scalar FogNoLB.fog[95].server[0] congestionRatio 0
scalar FogNoLB.fog[95].server[0] totalJobs 580664
scalar FogNoLB.fog[95].server[0] droppedJobsQueue 157
scalar FogNoLB.fog[95].server[0] droppedJobsTimout 24278
scalar FogNoLB.fog[95].server[0] droppedJobsSLA 0
scalar FogNoLB.fog[95].server[0] droppedJobsTotal 24435
scalar FogNoLB.fog[96].dispatcher localJobs 582661
scalar FogNoLB.fog[96].dispatcher remoteJobs 0
scalar FogNoLB.fog[96].dispatcher probeQueries 0
scalar FogNoLB.fog[96].dispatcher probeAnswers 0
scalar FogNoLB.fog[96].dispatcher droppedJobsSLA 0
scalar FogNoLB.fog[96].dispatcher jobs_class_1 582661
scalar FogNoLB.fog[96].dispatcher localJobs_class_1 582661
scalar FogNoLB.fog[96].server[0] rho 0.88944053649902
scalar FogNoLB.fog[96].server[0] congestionRatio 0
scalar FogNoLB.fog[96].server[0] totalJobs 582661
scalar FogNoLB.fog[96].server[0] droppedJobsQueue 115
scalar FogNoLB.fog[96].server[0] droppedJobsTimout 24785
scalar FogNoLB.fog[96].server[0] droppedJobsSLA 0
scalar FogNoLB.fog[96].server[0] droppedJobsTotal 24900
scalar FogNoLB.fog[97].dispatcher localJobs 582039
scalar FogNoLB.fog[97].dispatcher remoteJobs 0
scalar FogNoLB.fog[97].dispatcher probeQueries 0
scalar FogNoLB.fog[97].dispatcher probeAnswers 0
scalar FogNoLB.fog[97].dispatcher droppedJobsSLA 0
scalar FogNoLB.fog[97].dispatcher jobs_class_1 582039
scalar FogNoLB.fog[97].dispatcher localJobs_class_1 582039
scalar FogNoLB.fog[97].server[0] rho 0.88842439651489
scalar FogNoLB.fog[97].server[0] congestionRatio 0
scalar FogNoLB.fog[97].server[0] totalJobs 582039
scalar FogNoLB.fog[97].server[0] droppedJobsQueue 138
scalar FogNoLB.fog[97].server[0] droppedJobsTimout 24687
scalar FogNoLB.fog[97].server[0] droppedJobsSLA 0
scalar FogNoLB.fog[97].server[0] droppedJobsTotal 24825
scalar FogNoLB.fog[98].dispatcher localJobs 581933
scalar FogNoLB.fog[98].dispatcher remoteJobs 0
scalar FogNoLB.fog[98].dispatcher probeQueries 0
scalar FogNoLB.fog[98].dispatcher probeAnswers 0
scalar FogNoLB.fog[98].dispatcher droppedJobsSLA 0
scalar FogNoLB.fog[98].dispatcher jobs_class_1 581933
scalar FogNoLB.fog[98].dispatcher localJobs_class_1 581933
scalar FogNoLB.fog[98].server[0] rho 0.88781571388245
scalar FogNoLB.fog[98].server[0] congestionRatio 0
scalar FogNoLB.fog[98].server[0] totalJobs 581933
scalar FogNoLB.fog[98].server[0] droppedJobsQueue 151
scalar FogNoLB.fog[98].server[0] droppedJobsTimout 25630
scalar FogNoLB.fog[98].server[0] droppedJobsSLA 0
scalar FogNoLB.fog[98].server[0] droppedJobsTotal 25781
scalar FogNoLB.fog[99].dispatcher localJobs 580892
scalar FogNoLB.fog[99].dispatcher remoteJobs 0
scalar FogNoLB.fog[99].dispatcher probeQueries 0
scalar FogNoLB.fog[99].dispatcher probeAnswers 0
scalar FogNoLB.fog[99].dispatcher droppedJobsSLA 0
scalar FogNoLB.fog[99].dispatcher jobs_class_1 580892
scalar FogNoLB.fog[99].dispatcher localJobs_class_1 580892
scalar FogNoLB.fog[99].server[0] rho 0.88716119527817
scalar FogNoLB.fog[99].server[0] congestionRatio 0
scalar FogNoLB.fog[99].server[0] totalJobs 580892
scalar FogNoLB.fog[99].server[0] droppedJobsQueue 147
scalar FogNoLB.fog[99].server[0] droppedJobsTimout 23927
scalar FogNoLB.fog[99].server[0] droppedJobsSLA 0
scalar FogNoLB.fog[99].server[0] droppedJobsTotal 24074
scalar FogNoLB.sink avg_responseTime_1 0.065524962300922
scalar FogNoLB.sink p90_responseTime_1 0.014868582243
scalar FogNoLB.sink med_responseTime_1 0.014868582243
scalar FogNoLB.sink avg_delayTime_1 0
scalar FogNoLB.sink p90_delayTime_1 0
scalar FogNoLB.sink med_delayTime_1 0
scalar FogNoLB.sink avg_queuingTime_1 0.048825234971275
scalar FogNoLB.sink p90_queuingTime_1 0
scalar FogNoLB.sink med_queuingTime_1 0
scalar FogNoLB.sink avg_serviceTime_1 0.016699727329667
scalar FogNoLB.sink p90_serviceTime_1 0.014638923562
scalar FogNoLB.sink med_serviceTime_1 0.014638923562
scalar FogNoLB.sink avg_balancerTime_1 0
scalar FogNoLB.sink p90_balancerTime_1 0
scalar FogNoLB.sink med_balancerTime_1 0
scalar FogNoLB.sink avg_balancerCount_1 1
scalar FogNoLB.sink p90_balancerCount_1 1
scalar FogNoLB.sink med_balancerCount_1 1

