version 2
run Fog-mul_001-rho_09-thr_17-3-20190711-22:15:34-60549
attr configname Fog-mul_001-rho_09-thr_17
attr datetime 20190711-22:15:34
attr experiment Fog-mul_001-rho_09-thr_17
attr inifile FogQueueLen.ini
attr iterationvars ""
attr iterationvarsf ""
attr measurement ""
attr network FogNoLB
attr processid 60549
attr repetition 3
attr replication #3
attr resultdir results
attr runnumber 3
attr seedset 3
param FogNoLB.proctimeMul 0.01
param FogNoLB.rho 0.9
param FogNoLB.fog[*].server[*].capacity 17
param FogNoLB.nSources 100
param FogNoLB.rho 0.9
param FogNoLB.proctimeMul 1.0
param FogNoLB.source[*].appId 1
param FogNoLB.fog[*].nServers 1
param FogNoLB.fog[*].dispatcher.fanOut 1
param FogNoLB.fog[*].server[*].timeSlice -1s
param FogNoLB.fog[*].server[*].capacity 5
param FogNoLB.fog[*].server[*].fifo true
param FogNoLB.fog[*].server[*].maxServiceTime -1s

scalar FogNoLB.fog[0].dispatcher localJobs 582747
scalar FogNoLB.fog[0].dispatcher remoteJobs 0
scalar FogNoLB.fog[0].dispatcher probeQueries 0
scalar FogNoLB.fog[0].dispatcher probeAnswers 0
scalar FogNoLB.fog[0].dispatcher droppedJobsSLA 0
scalar FogNoLB.fog[0].dispatcher jobs_class_1 582747
scalar FogNoLB.fog[0].dispatcher localJobs_class_1 582747
scalar FogNoLB.fog[0].server[0] rho 0.88954961299896
scalar FogNoLB.fog[0].server[0] congestionRatio 0
scalar FogNoLB.fog[0].server[0] totalJobs 582747
scalar FogNoLB.fog[0].server[0] droppedJobsQueue 134
scalar FogNoLB.fog[0].server[0] droppedJobsTimout 24459
scalar FogNoLB.fog[0].server[0] droppedJobsSLA 0
scalar FogNoLB.fog[0].server[0] droppedJobsTotal 24593
scalar FogNoLB.fog[1].dispatcher localJobs 581930
scalar FogNoLB.fog[1].dispatcher remoteJobs 0
scalar FogNoLB.fog[1].dispatcher probeQueries 0
scalar FogNoLB.fog[1].dispatcher probeAnswers 0
scalar FogNoLB.fog[1].dispatcher droppedJobsSLA 0
scalar FogNoLB.fog[1].dispatcher jobs_class_1 581930
scalar FogNoLB.fog[1].dispatcher localJobs_class_1 581930
scalar FogNoLB.fog[1].server[0] rho 0.88785564899445
scalar FogNoLB.fog[1].server[0] congestionRatio 0
scalar FogNoLB.fog[1].server[0] totalJobs 581930
scalar FogNoLB.fog[1].server[0] droppedJobsQueue 167
scalar FogNoLB.fog[1].server[0] droppedJobsTimout 25426
scalar FogNoLB.fog[1].server[0] droppedJobsSLA 0
scalar FogNoLB.fog[1].server[0] droppedJobsTotal 25593
scalar FogNoLB.fog[2].dispatcher localJobs 582507
scalar FogNoLB.fog[2].dispatcher remoteJobs 0
scalar FogNoLB.fog[2].dispatcher probeQueries 0
scalar FogNoLB.fog[2].dispatcher probeAnswers 0
scalar FogNoLB.fog[2].dispatcher droppedJobsSLA 0
scalar FogNoLB.fog[2].dispatcher jobs_class_1 582507
scalar FogNoLB.fog[2].dispatcher localJobs_class_1 582507
scalar FogNoLB.fog[2].server[0] rho 0.88922441005707
scalar FogNoLB.fog[2].server[0] congestionRatio 0
scalar FogNoLB.fog[2].server[0] totalJobs 582507
scalar FogNoLB.fog[2].server[0] droppedJobsQueue 128
scalar FogNoLB.fog[2].server[0] droppedJobsTimout 24280
scalar FogNoLB.fog[2].server[0] droppedJobsSLA 0
scalar FogNoLB.fog[2].server[0] droppedJobsTotal 24408
scalar FogNoLB.fog[3].dispatcher localJobs 581878
scalar FogNoLB.fog[3].dispatcher remoteJobs 0
scalar FogNoLB.fog[3].dispatcher probeQueries 0
scalar FogNoLB.fog[3].dispatcher probeAnswers 0
scalar FogNoLB.fog[3].dispatcher droppedJobsSLA 0
scalar FogNoLB.fog[3].dispatcher jobs_class_1 581878
scalar FogNoLB.fog[3].dispatcher localJobs_class_1 581878
scalar FogNoLB.fog[3].server[0] rho 0.88788747787476
scalar FogNoLB.fog[3].server[0] congestionRatio 0
scalar FogNoLB.fog[3].server[0] totalJobs 581878
scalar FogNoLB.fog[3].server[0] droppedJobsQueue 170
scalar FogNoLB.fog[3].server[0] droppedJobsTimout 25091
scalar FogNoLB.fog[3].server[0] droppedJobsSLA 0
scalar FogNoLB.fog[3].server[0] droppedJobsTotal 25261
scalar FogNoLB.fog[4].dispatcher localJobs 581489
scalar FogNoLB.fog[4].dispatcher remoteJobs 0
scalar FogNoLB.fog[4].dispatcher probeQueries 0
scalar FogNoLB.fog[4].dispatcher probeAnswers 0
scalar FogNoLB.fog[4].dispatcher droppedJobsSLA 0
scalar FogNoLB.fog[4].dispatcher jobs_class_1 581489
scalar FogNoLB.fog[4].dispatcher localJobs_class_1 581489
scalar FogNoLB.fog[4].server[0] rho 0.88748639822006
scalar FogNoLB.fog[4].server[0] congestionRatio 0
scalar FogNoLB.fog[4].server[0] totalJobs 581489
scalar FogNoLB.fog[4].server[0] droppedJobsQueue 140
scalar FogNoLB.fog[4].server[0] droppedJobsTimout 24744
scalar FogNoLB.fog[4].server[0] droppedJobsSLA 0
scalar FogNoLB.fog[4].server[0] droppedJobsTotal 24884
scalar FogNoLB.fog[5].dispatcher localJobs 582276
scalar FogNoLB.fog[5].dispatcher remoteJobs 0
scalar FogNoLB.fog[5].dispatcher probeQueries 0
scalar FogNoLB.fog[5].dispatcher probeAnswers 0
scalar FogNoLB.fog[5].dispatcher droppedJobsSLA 0
scalar FogNoLB.fog[5].dispatcher jobs_class_1 582276
scalar FogNoLB.fog[5].dispatcher localJobs_class_1 582276
scalar FogNoLB.fog[5].server[0] rho 0.88861763477325
scalar FogNoLB.fog[5].server[0] congestionRatio 0
scalar FogNoLB.fog[5].server[0] totalJobs 582276
scalar FogNoLB.fog[5].server[0] droppedJobsQueue 152
scalar FogNoLB.fog[5].server[0] droppedJobsTimout 24974
scalar FogNoLB.fog[5].server[0] droppedJobsSLA 0
scalar FogNoLB.fog[5].server[0] droppedJobsTotal 25126
scalar FogNoLB.fog[6].dispatcher localJobs 581052
scalar FogNoLB.fog[6].dispatcher remoteJobs 0
scalar FogNoLB.fog[6].dispatcher probeQueries 0
scalar FogNoLB.fog[6].dispatcher probeAnswers 0
scalar FogNoLB.fog[6].dispatcher droppedJobsSLA 0
scalar FogNoLB.fog[6].dispatcher jobs_class_1 581052
scalar FogNoLB.fog[6].dispatcher localJobs_class_1 581052
scalar FogNoLB.fog[6].server[0] rho 0.88634771108627
scalar FogNoLB.fog[6].server[0] congestionRatio 0
scalar FogNoLB.fog[6].server[0] totalJobs 581052
scalar FogNoLB.fog[6].server[0] droppedJobsQueue 177
scalar FogNoLB.fog[6].server[0] droppedJobsTimout 25457
scalar FogNoLB.fog[6].server[0] droppedJobsSLA 0
scalar FogNoLB.fog[6].server[0] droppedJobsTotal 25634
scalar FogNoLB.fog[7].dispatcher localJobs 580965
scalar FogNoLB.fog[7].dispatcher remoteJobs 0
scalar FogNoLB.fog[7].dispatcher probeQueries 0
scalar FogNoLB.fog[7].dispatcher probeAnswers 0
scalar FogNoLB.fog[7].dispatcher droppedJobsSLA 0
scalar FogNoLB.fog[7].dispatcher jobs_class_1 580965
scalar FogNoLB.fog[7].dispatcher localJobs_class_1 580965
scalar FogNoLB.fog[7].server[0] rho 0.88692164421082
scalar FogNoLB.fog[7].server[0] congestionRatio 0
scalar FogNoLB.fog[7].server[0] totalJobs 580965
scalar FogNoLB.fog[7].server[0] droppedJobsQueue 106
scalar FogNoLB.fog[7].server[0] droppedJobsTimout 24181
scalar FogNoLB.fog[7].server[0] droppedJobsSLA 0
scalar FogNoLB.fog[7].server[0] droppedJobsTotal 24287
scalar FogNoLB.fog[8].dispatcher localJobs 582269
scalar FogNoLB.fog[8].dispatcher remoteJobs 0
scalar FogNoLB.fog[8].dispatcher probeQueries 0
scalar FogNoLB.fog[8].dispatcher probeAnswers 0
scalar FogNoLB.fog[8].dispatcher droppedJobsSLA 0
scalar FogNoLB.fog[8].dispatcher jobs_class_1 582269
scalar FogNoLB.fog[8].dispatcher localJobs_class_1 582269
scalar FogNoLB.fog[8].server[0] rho 0.88862258195877
scalar FogNoLB.fog[8].server[0] congestionRatio 0
scalar FogNoLB.fog[8].server[0] totalJobs 582269
scalar FogNoLB.fog[8].server[0] droppedJobsQueue 128
scalar FogNoLB.fog[8].server[0] droppedJobsTimout 25062
scalar FogNoLB.fog[8].server[0] droppedJobsSLA 0
scalar FogNoLB.fog[8].server[0] droppedJobsTotal 25190
scalar FogNoLB.fog[9].dispatcher localJobs 582013
scalar FogNoLB.fog[9].dispatcher remoteJobs 0
scalar FogNoLB.fog[9].dispatcher probeQueries 0
scalar FogNoLB.fog[9].dispatcher probeAnswers 0
scalar FogNoLB.fog[9].dispatcher droppedJobsSLA 0
scalar FogNoLB.fog[9].dispatcher jobs_class_1 582013
scalar FogNoLB.fog[9].dispatcher localJobs_class_1 582013
scalar FogNoLB.fog[9].server[0] rho 0.88771939277649
scalar FogNoLB.fog[9].server[0] congestionRatio 0
scalar FogNoLB.fog[9].server[0] totalJobs 582013
scalar FogNoLB.fog[9].server[0] droppedJobsQueue 176
scalar FogNoLB.fog[9].server[0] droppedJobsTimout 25733
scalar FogNoLB.fog[9].server[0] droppedJobsSLA 0
scalar FogNoLB.fog[9].server[0] droppedJobsTotal 25909
scalar FogNoLB.fog[10].dispatcher localJobs 582566
scalar FogNoLB.fog[10].dispatcher remoteJobs 0
scalar FogNoLB.fog[10].dispatcher probeQueries 0
scalar FogNoLB.fog[10].dispatcher probeAnswers 0
scalar FogNoLB.fog[10].dispatcher droppedJobsSLA 0
scalar FogNoLB.fog[10].dispatcher jobs_class_1 582566
scalar FogNoLB.fog[10].dispatcher localJobs_class_1 582566
scalar FogNoLB.fog[10].server[0] rho 0.8886331319809
scalar FogNoLB.fog[10].server[0] congestionRatio 0
scalar FogNoLB.fog[10].server[0] totalJobs 582566
scalar FogNoLB.fog[10].server[0] droppedJobsQueue 155
scalar FogNoLB.fog[10].server[0] droppedJobsTimout 25673
scalar FogNoLB.fog[10].server[0] droppedJobsSLA 0
scalar FogNoLB.fog[10].server[0] droppedJobsTotal 25828
scalar FogNoLB.fog[11].dispatcher localJobs 581610
scalar FogNoLB.fog[11].dispatcher remoteJobs 0
scalar FogNoLB.fog[11].dispatcher probeQueries 0
scalar FogNoLB.fog[11].dispatcher probeAnswers 0
scalar FogNoLB.fog[11].dispatcher droppedJobsSLA 0
scalar FogNoLB.fog[11].dispatcher jobs_class_1 581610
scalar FogNoLB.fog[11].dispatcher localJobs_class_1 581610
scalar FogNoLB.fog[11].server[0] rho 0.88758307695389
scalar FogNoLB.fog[11].server[0] congestionRatio 0
scalar FogNoLB.fog[11].server[0] totalJobs 581610
scalar FogNoLB.fog[11].server[0] droppedJobsQueue 118
scalar FogNoLB.fog[11].server[0] droppedJobsTimout 25204
scalar FogNoLB.fog[11].server[0] droppedJobsSLA 0
scalar FogNoLB.fog[11].server[0] droppedJobsTotal 25322
scalar FogNoLB.fog[12].dispatcher localJobs 581494
scalar FogNoLB.fog[12].dispatcher remoteJobs 0
scalar FogNoLB.fog[12].dispatcher probeQueries 0
scalar FogNoLB.fog[12].dispatcher probeAnswers 0
scalar FogNoLB.fog[12].dispatcher droppedJobsSLA 0
scalar FogNoLB.fog[12].dispatcher jobs_class_1 581494
scalar FogNoLB.fog[12].dispatcher localJobs_class_1 581494
scalar FogNoLB.fog[12].server[0] rho 0.88744580745697
scalar FogNoLB.fog[12].server[0] congestionRatio 0
scalar FogNoLB.fog[12].server[0] totalJobs 581494
scalar FogNoLB.fog[12].server[0] droppedJobsQueue 142
scalar FogNoLB.fog[12].server[0] droppedJobsTimout 24945
scalar FogNoLB.fog[12].server[0] droppedJobsSLA 0
scalar FogNoLB.fog[12].server[0] droppedJobsTotal 25087
scalar FogNoLB.fog[13].dispatcher localJobs 580957
scalar FogNoLB.fog[13].dispatcher remoteJobs 0
scalar FogNoLB.fog[13].dispatcher probeQueries 0
scalar FogNoLB.fog[13].dispatcher probeAnswers 0
scalar FogNoLB.fog[13].dispatcher droppedJobsSLA 0
scalar FogNoLB.fog[13].dispatcher jobs_class_1 580957
scalar FogNoLB.fog[13].dispatcher localJobs_class_1 580957
scalar FogNoLB.fog[13].server[0] rho 0.88677954673767
scalar FogNoLB.fog[13].server[0] congestionRatio 0
scalar FogNoLB.fog[13].server[0] totalJobs 580957
scalar FogNoLB.fog[13].server[0] droppedJobsQueue 147
scalar FogNoLB.fog[13].server[0] droppedJobsTimout 24057
scalar FogNoLB.fog[13].server[0] droppedJobsSLA 0
scalar FogNoLB.fog[13].server[0] droppedJobsTotal 24204
scalar FogNoLB.fog[14].dispatcher localJobs 582253
scalar FogNoLB.fog[14].dispatcher remoteJobs 0
scalar FogNoLB.fog[14].dispatcher probeQueries 0
scalar FogNoLB.fog[14].dispatcher probeAnswers 0
scalar FogNoLB.fog[14].dispatcher droppedJobsSLA 0
scalar FogNoLB.fog[14].dispatcher jobs_class_1 582253
scalar FogNoLB.fog[14].dispatcher localJobs_class_1 582253
scalar FogNoLB.fog[14].server[0] rho 0.88815927505493
scalar FogNoLB.fog[14].server[0] congestionRatio 0
scalar FogNoLB.fog[14].server[0] totalJobs 582253
scalar FogNoLB.fog[14].server[0] droppedJobsQueue 162
scalar FogNoLB.fog[14].server[0] droppedJobsTimout 25570
scalar FogNoLB.fog[14].server[0] droppedJobsSLA 0
scalar FogNoLB.fog[14].server[0] droppedJobsTotal 25732
scalar FogNoLB.fog[15].dispatcher localJobs 581473
scalar FogNoLB.fog[15].dispatcher remoteJobs 0
scalar FogNoLB.fog[15].dispatcher probeQueries 0
scalar FogNoLB.fog[15].dispatcher probeAnswers 0
scalar FogNoLB.fog[15].dispatcher droppedJobsSLA 0
scalar FogNoLB.fog[15].dispatcher jobs_class_1 581473
scalar FogNoLB.fog[15].dispatcher localJobs_class_1 581473
scalar FogNoLB.fog[15].server[0] rho 0.88737493753433
scalar FogNoLB.fog[15].server[0] congestionRatio 0
scalar FogNoLB.fog[15].server[0] totalJobs 581473
scalar FogNoLB.fog[15].server[0] droppedJobsQueue 159
scalar FogNoLB.fog[15].server[0] droppedJobsTimout 24592
scalar FogNoLB.fog[15].server[0] droppedJobsSLA 0
scalar FogNoLB.fog[15].server[0] droppedJobsTotal 24751
scalar FogNoLB.fog[16].dispatcher localJobs 581548
scalar FogNoLB.fog[16].dispatcher remoteJobs 0
scalar FogNoLB.fog[16].dispatcher probeQueries 0
scalar FogNoLB.fog[16].dispatcher probeAnswers 0
scalar FogNoLB.fog[16].dispatcher droppedJobsSLA 0
scalar FogNoLB.fog[16].dispatcher jobs_class_1 581548
scalar FogNoLB.fog[16].dispatcher localJobs_class_1 581548
scalar FogNoLB.fog[16].server[0] rho 0.88778173923492
scalar FogNoLB.fog[16].server[0] congestionRatio 0
scalar FogNoLB.fog[16].server[0] totalJobs 581548
scalar FogNoLB.fog[16].server[0] droppedJobsQueue 122
scalar FogNoLB.fog[16].server[0] droppedJobsTimout 24649
scalar FogNoLB.fog[16].server[0] droppedJobsSLA 0
scalar FogNoLB.fog[16].server[0] droppedJobsTotal 24771
scalar FogNoLB.fog[17].dispatcher localJobs 582625
scalar FogNoLB.fog[17].dispatcher remoteJobs 0
scalar FogNoLB.fog[17].dispatcher probeQueries 0
scalar FogNoLB.fog[17].dispatcher probeAnswers 0
scalar FogNoLB.fog[17].dispatcher droppedJobsSLA 0
scalar FogNoLB.fog[17].dispatcher jobs_class_1 582625
scalar FogNoLB.fog[17].dispatcher localJobs_class_1 582625
scalar FogNoLB.fog[17].server[0] rho 0.88878929615021
scalar FogNoLB.fog[17].server[0] congestionRatio 0
scalar FogNoLB.fog[17].server[0] totalJobs 582625
scalar FogNoLB.fog[17].server[0] droppedJobsQueue 135
scalar FogNoLB.fog[17].server[0] droppedJobsTimout 25659
scalar FogNoLB.fog[17].server[0] droppedJobsSLA 0
scalar FogNoLB.fog[17].server[0] droppedJobsTotal 25794
scalar FogNoLB.fog[18].dispatcher localJobs 583187
scalar FogNoLB.fog[18].dispatcher remoteJobs 0
scalar FogNoLB.fog[18].dispatcher probeQueries 0
scalar FogNoLB.fog[18].dispatcher probeAnswers 0
scalar FogNoLB.fog[18].dispatcher droppedJobsSLA 0
scalar FogNoLB.fog[18].dispatcher jobs_class_1 583187
scalar FogNoLB.fog[18].dispatcher localJobs_class_1 583187
scalar FogNoLB.fog[18].server[0] rho 0.88990306854248
scalar FogNoLB.fog[18].server[0] congestionRatio 0
scalar FogNoLB.fog[18].server[0] totalJobs 583187
scalar FogNoLB.fog[18].server[0] droppedJobsQueue 147
scalar FogNoLB.fog[18].server[0] droppedJobsTimout 25372
scalar FogNoLB.fog[18].server[0] droppedJobsSLA 0
scalar FogNoLB.fog[18].server[0] droppedJobsTotal 25519
scalar FogNoLB.fog[19].dispatcher localJobs 581793
scalar FogNoLB.fog[19].dispatcher remoteJobs 0
scalar FogNoLB.fog[19].dispatcher probeQueries 0
scalar FogNoLB.fog[19].dispatcher probeAnswers 0
scalar FogNoLB.fog[19].dispatcher droppedJobsSLA 0
scalar FogNoLB.fog[19].dispatcher jobs_class_1 581793
scalar FogNoLB.fog[19].dispatcher localJobs_class_1 581793
scalar FogNoLB.fog[19].server[0] rho 0.88694322109222
scalar FogNoLB.fog[19].server[0] congestionRatio 0
scalar FogNoLB.fog[19].server[0] totalJobs 581793
scalar FogNoLB.fog[19].server[0] droppedJobsQueue 165
scalar FogNoLB.fog[19].server[0] droppedJobsTimout 26363
scalar FogNoLB.fog[19].server[0] droppedJobsSLA 0
scalar FogNoLB.fog[19].server[0] droppedJobsTotal 26528
scalar FogNoLB.fog[20].dispatcher localJobs 581957
scalar FogNoLB.fog[20].dispatcher remoteJobs 0
scalar FogNoLB.fog[20].dispatcher probeQueries 0
scalar FogNoLB.fog[20].dispatcher probeAnswers 0
scalar FogNoLB.fog[20].dispatcher droppedJobsSLA 0
scalar FogNoLB.fog[20].dispatcher jobs_class_1 581957
scalar FogNoLB.fog[20].dispatcher localJobs_class_1 581957
scalar FogNoLB.fog[20].server[0] rho 0.88810884952545
scalar FogNoLB.fog[20].server[0] congestionRatio 0
scalar FogNoLB.fog[20].server[0] totalJobs 581957
scalar FogNoLB.fog[20].server[0] droppedJobsQueue 130
scalar FogNoLB.fog[20].server[0] droppedJobsTimout 25052
scalar FogNoLB.fog[20].server[0] droppedJobsSLA 0
scalar FogNoLB.fog[20].server[0] droppedJobsTotal 25182
scalar FogNoLB.fog[21].dispatcher localJobs 581321
scalar FogNoLB.fog[21].dispatcher remoteJobs 0
scalar FogNoLB.fog[21].dispatcher probeQueries 0
scalar FogNoLB.fog[21].dispatcher probeAnswers 0
scalar FogNoLB.fog[21].dispatcher droppedJobsSLA 0
scalar FogNoLB.fog[21].dispatcher jobs_class_1 581321
scalar FogNoLB.fog[21].dispatcher localJobs_class_1 581321
scalar FogNoLB.fog[21].server[0] rho 0.88732379674911
scalar FogNoLB.fog[21].server[0] congestionRatio 0
scalar FogNoLB.fog[21].server[0] totalJobs 581321
scalar FogNoLB.fog[21].server[0] droppedJobsQueue 139
scalar FogNoLB.fog[21].server[0] droppedJobsTimout 24439
scalar FogNoLB.fog[21].server[0] droppedJobsSLA 0
scalar FogNoLB.fog[21].server[0] droppedJobsTotal 24578
scalar FogNoLB.fog[22].dispatcher localJobs 583722
scalar FogNoLB.fog[22].dispatcher remoteJobs 0
scalar FogNoLB.fog[22].dispatcher probeQueries 0
scalar FogNoLB.fog[22].dispatcher probeAnswers 0
scalar FogNoLB.fog[22].dispatcher droppedJobsSLA 0
scalar FogNoLB.fog[22].dispatcher jobs_class_1 583722
scalar FogNoLB.fog[22].dispatcher localJobs_class_1 583722
scalar FogNoLB.fog[22].server[0] rho 0.89019894599915
scalar FogNoLB.fog[22].server[0] congestionRatio 0
scalar FogNoLB.fog[22].server[0] totalJobs 583722
scalar FogNoLB.fog[22].server[0] droppedJobsQueue 165
scalar FogNoLB.fog[22].server[0] droppedJobsTimout 26145
scalar FogNoLB.fog[22].server[0] droppedJobsSLA 0
scalar FogNoLB.fog[22].server[0] droppedJobsTotal 26310
scalar FogNoLB.fog[23].dispatcher localJobs 582291
scalar FogNoLB.fog[23].dispatcher remoteJobs 0
scalar FogNoLB.fog[23].dispatcher probeQueries 0
scalar FogNoLB.fog[23].dispatcher probeAnswers 0
scalar FogNoLB.fog[23].dispatcher droppedJobsSLA 0
scalar FogNoLB.fog[23].dispatcher jobs_class_1 582291
scalar FogNoLB.fog[23].dispatcher localJobs_class_1 582291
scalar FogNoLB.fog[23].server[0] rho 0.88794815540314
scalar FogNoLB.fog[23].server[0] congestionRatio 0
scalar FogNoLB.fog[23].server[0] totalJobs 582291
scalar FogNoLB.fog[23].server[0] droppedJobsQueue 146
scalar FogNoLB.fog[23].server[0] droppedJobsTimout 26142
scalar FogNoLB.fog[23].server[0] droppedJobsSLA 0
scalar FogNoLB.fog[23].server[0] droppedJobsTotal 26288
scalar FogNoLB.fog[24].dispatcher localJobs 581441
scalar FogNoLB.fog[24].dispatcher remoteJobs 0
scalar FogNoLB.fog[24].dispatcher probeQueries 0
scalar FogNoLB.fog[24].dispatcher probeAnswers 0
scalar FogNoLB.fog[24].dispatcher droppedJobsSLA 0
scalar FogNoLB.fog[24].dispatcher jobs_class_1 581441
scalar FogNoLB.fog[24].dispatcher localJobs_class_1 581441
scalar FogNoLB.fog[24].server[0] rho 0.88787966966629
scalar FogNoLB.fog[24].server[0] congestionRatio 0
scalar FogNoLB.fog[24].server[0] totalJobs 581441
scalar FogNoLB.fog[24].server[0] droppedJobsQueue 137
scalar FogNoLB.fog[24].server[0] droppedJobsTimout 24054
scalar FogNoLB.fog[24].server[0] droppedJobsSLA 0
scalar FogNoLB.fog[24].server[0] droppedJobsTotal 24191
scalar FogNoLB.fog[25].dispatcher localJobs 581342
scalar FogNoLB.fog[25].dispatcher remoteJobs 0
scalar FogNoLB.fog[25].dispatcher probeQueries 0
scalar FogNoLB.fog[25].dispatcher probeAnswers 0
scalar FogNoLB.fog[25].dispatcher droppedJobsSLA 0
scalar FogNoLB.fog[25].dispatcher jobs_class_1 581342
scalar FogNoLB.fog[25].dispatcher localJobs_class_1 581342
scalar FogNoLB.fog[25].server[0] rho 0.88717812299728
scalar FogNoLB.fog[25].server[0] congestionRatio 0
scalar FogNoLB.fog[25].server[0] totalJobs 581342
scalar FogNoLB.fog[25].server[0] droppedJobsQueue 137
scalar FogNoLB.fog[25].server[0] droppedJobsTimout 25000
scalar FogNoLB.fog[25].server[0] droppedJobsSLA 0
scalar FogNoLB.fog[25].server[0] droppedJobsTotal 25137
scalar FogNoLB.fog[26].dispatcher localJobs 582325
scalar FogNoLB.fog[26].dispatcher remoteJobs 0
scalar FogNoLB.fog[26].dispatcher probeQueries 0
scalar FogNoLB.fog[26].dispatcher probeAnswers 0
scalar FogNoLB.fog[26].dispatcher droppedJobsSLA 0
scalar FogNoLB.fog[26].dispatcher jobs_class_1 582325
scalar FogNoLB.fog[26].dispatcher localJobs_class_1 582325
scalar FogNoLB.fog[26].server[0] rho 0.88857018947601
scalar FogNoLB.fog[26].server[0] congestionRatio 0
scalar FogNoLB.fog[26].server[0] totalJobs 582325
scalar FogNoLB.fog[26].server[0] droppedJobsQueue 152
scalar FogNoLB.fog[26].server[0] droppedJobsTimout 25236
scalar FogNoLB.fog[26].server[0] droppedJobsSLA 0
scalar FogNoLB.fog[26].server[0] droppedJobsTotal 25388
scalar FogNoLB.fog[27].dispatcher localJobs 583271
scalar FogNoLB.fog[27].dispatcher remoteJobs 0
scalar FogNoLB.fog[27].dispatcher probeQueries 0
scalar FogNoLB.fog[27].dispatcher probeAnswers 0
scalar FogNoLB.fog[27].dispatcher droppedJobsSLA 0
scalar FogNoLB.fog[27].dispatcher jobs_class_1 583271
scalar FogNoLB.fog[27].dispatcher localJobs_class_1 583271
scalar FogNoLB.fog[27].server[0] rho 0.88955473899841
scalar FogNoLB.fog[27].server[0] congestionRatio 0
scalar FogNoLB.fog[27].server[0] totalJobs 583271
scalar FogNoLB.fog[27].server[0] droppedJobsQueue 150
scalar FogNoLB.fog[27].server[0] droppedJobsTimout 26010
scalar FogNoLB.fog[27].server[0] droppedJobsSLA 0
scalar FogNoLB.fog[27].server[0] droppedJobsTotal 26160
scalar FogNoLB.fog[28].dispatcher localJobs 583736
scalar FogNoLB.fog[28].dispatcher remoteJobs 0
scalar FogNoLB.fog[28].dispatcher probeQueries 0
scalar FogNoLB.fog[28].dispatcher probeAnswers 0
scalar FogNoLB.fog[28].dispatcher droppedJobsSLA 0
scalar FogNoLB.fog[28].dispatcher jobs_class_1 583736
scalar FogNoLB.fog[28].dispatcher localJobs_class_1 583736
scalar FogNoLB.fog[28].server[0] rho 0.88988500833511
scalar FogNoLB.fog[28].server[0] congestionRatio 0
scalar FogNoLB.fog[28].server[0] totalJobs 583736
scalar FogNoLB.fog[28].server[0] droppedJobsQueue 161
scalar FogNoLB.fog[28].server[0] droppedJobsTimout 26898
scalar FogNoLB.fog[28].server[0] droppedJobsSLA 0
scalar FogNoLB.fog[28].server[0] droppedJobsTotal 27059
scalar FogNoLB.fog[29].dispatcher localJobs 582316
scalar FogNoLB.fog[29].dispatcher remoteJobs 0
scalar FogNoLB.fog[29].dispatcher probeQueries 0
scalar FogNoLB.fog[29].dispatcher probeAnswers 0
scalar FogNoLB.fog[29].dispatcher droppedJobsSLA 0
scalar FogNoLB.fog[29].dispatcher jobs_class_1 582316
scalar FogNoLB.fog[29].dispatcher localJobs_class_1 582316
scalar FogNoLB.fog[29].server[0] rho 0.88905531167984
scalar FogNoLB.fog[29].server[0] congestionRatio 0
scalar FogNoLB.fog[29].server[0] totalJobs 582316
scalar FogNoLB.fog[29].server[0] droppedJobsQueue 130
scalar FogNoLB.fog[29].server[0] droppedJobsTimout 24378
scalar FogNoLB.fog[29].server[0] droppedJobsSLA 0
scalar FogNoLB.fog[29].server[0] droppedJobsTotal 24508
scalar FogNoLB.fog[30].dispatcher localJobs 581089
scalar FogNoLB.fog[30].dispatcher remoteJobs 0
scalar FogNoLB.fog[30].dispatcher probeQueries 0
scalar FogNoLB.fog[30].dispatcher probeAnswers 0
scalar FogNoLB.fog[30].dispatcher droppedJobsSLA 0
scalar FogNoLB.fog[30].dispatcher jobs_class_1 581089
scalar FogNoLB.fog[30].dispatcher localJobs_class_1 581089
scalar FogNoLB.fog[30].server[0] rho 0.88685095310211
scalar FogNoLB.fog[30].server[0] congestionRatio 0
scalar FogNoLB.fog[30].server[0] totalJobs 581089
scalar FogNoLB.fog[30].server[0] droppedJobsQueue 132
scalar FogNoLB.fog[30].server[0] droppedJobsTimout 24842
scalar FogNoLB.fog[30].server[0] droppedJobsSLA 0
scalar FogNoLB.fog[30].server[0] droppedJobsTotal 24974
scalar FogNoLB.fog[31].dispatcher localJobs 582302
scalar FogNoLB.fog[31].dispatcher remoteJobs 0
scalar FogNoLB.fog[31].dispatcher probeQueries 0
scalar FogNoLB.fog[31].dispatcher probeAnswers 0
scalar FogNoLB.fog[31].dispatcher droppedJobsSLA 0
scalar FogNoLB.fog[31].dispatcher jobs_class_1 582302
scalar FogNoLB.fog[31].dispatcher localJobs_class_1 582302
scalar FogNoLB.fog[31].server[0] rho 0.88821870088577
scalar FogNoLB.fog[31].server[0] congestionRatio 0
scalar FogNoLB.fog[31].server[0] totalJobs 582302
scalar FogNoLB.fog[31].server[0] droppedJobsQueue 135
scalar FogNoLB.fog[31].server[0] droppedJobsTimout 25918
scalar FogNoLB.fog[31].server[0] droppedJobsSLA 0
scalar FogNoLB.fog[31].server[0] droppedJobsTotal 26053
scalar FogNoLB.fog[32].dispatcher localJobs 581511
scalar FogNoLB.fog[32].dispatcher remoteJobs 0
scalar FogNoLB.fog[32].dispatcher probeQueries 0
scalar FogNoLB.fog[32].dispatcher probeAnswers 0
scalar FogNoLB.fog[32].dispatcher droppedJobsSLA 0
scalar FogNoLB.fog[32].dispatcher jobs_class_1 581511
scalar FogNoLB.fog[32].dispatcher localJobs_class_1 581511
scalar FogNoLB.fog[32].server[0] rho 0.8870667219162
scalar FogNoLB.fog[32].server[0] congestionRatio 0
scalar FogNoLB.fog[32].server[0] totalJobs 581511
scalar FogNoLB.fog[32].server[0] droppedJobsQueue 168
scalar FogNoLB.fog[32].server[0] droppedJobsTimout 25649
scalar FogNoLB.fog[32].server[0] droppedJobsSLA 0
scalar FogNoLB.fog[32].server[0] droppedJobsTotal 25817
scalar FogNoLB.fog[33].dispatcher localJobs 581222
scalar FogNoLB.fog[33].dispatcher remoteJobs 0
scalar FogNoLB.fog[33].dispatcher probeQueries 0
scalar FogNoLB.fog[33].dispatcher probeAnswers 0
scalar FogNoLB.fog[33].dispatcher droppedJobsSLA 0
scalar FogNoLB.fog[33].dispatcher jobs_class_1 581222
scalar FogNoLB.fog[33].dispatcher localJobs_class_1 581222
scalar FogNoLB.fog[33].server[0] rho 0.88749140501022
scalar FogNoLB.fog[33].server[0] congestionRatio 0
scalar FogNoLB.fog[33].server[0] totalJobs 581222
scalar FogNoLB.fog[33].server[0] droppedJobsQueue 157
scalar FogNoLB.fog[33].server[0] droppedJobsTimout 24097
scalar FogNoLB.fog[33].server[0] droppedJobsSLA 0
scalar FogNoLB.fog[33].server[0] droppedJobsTotal 24254
scalar FogNoLB.fog[34].dispatcher localJobs 582326
scalar FogNoLB.fog[34].dispatcher remoteJobs 0
scalar FogNoLB.fog[34].dispatcher probeQueries 0
scalar FogNoLB.fog[34].dispatcher probeAnswers 0
scalar FogNoLB.fog[34].dispatcher droppedJobsSLA 0
scalar FogNoLB.fog[34].dispatcher jobs_class_1 582326
scalar FogNoLB.fog[34].dispatcher localJobs_class_1 582326
scalar FogNoLB.fog[34].server[0] rho 0.8881419301033
scalar FogNoLB.fog[34].server[0] congestionRatio 0
scalar FogNoLB.fog[34].server[0] totalJobs 582326
scalar FogNoLB.fog[34].server[0] droppedJobsQueue 121
scalar FogNoLB.fog[34].server[0] droppedJobsTimout 25897
scalar FogNoLB.fog[34].server[0] droppedJobsSLA 0
scalar FogNoLB.fog[34].server[0] droppedJobsTotal 26018
scalar FogNoLB.fog[35].dispatcher localJobs 582037
scalar FogNoLB.fog[35].dispatcher remoteJobs 0
scalar FogNoLB.fog[35].dispatcher probeQueries 0
scalar FogNoLB.fog[35].dispatcher probeAnswers 0
scalar FogNoLB.fog[35].dispatcher droppedJobsSLA 0
scalar FogNoLB.fog[35].dispatcher jobs_class_1 582037
scalar FogNoLB.fog[35].dispatcher localJobs_class_1 582037
scalar FogNoLB.fog[35].server[0] rho 0.88813787698746
scalar FogNoLB.fog[35].server[0] congestionRatio 0
scalar FogNoLB.fog[35].server[0] totalJobs 582037
scalar FogNoLB.fog[35].server[0] droppedJobsQueue 186
scalar FogNoLB.fog[35].server[0] droppedJobsTimout 24512
scalar FogNoLB.fog[35].server[0] droppedJobsSLA 0
scalar FogNoLB.fog[35].server[0] droppedJobsTotal 24698
scalar FogNoLB.fog[36].dispatcher localJobs 580507
scalar FogNoLB.fog[36].dispatcher remoteJobs 0
scalar FogNoLB.fog[36].dispatcher probeQueries 0
scalar FogNoLB.fog[36].dispatcher probeAnswers 0
scalar FogNoLB.fog[36].dispatcher droppedJobsSLA 0
scalar FogNoLB.fog[36].dispatcher jobs_class_1 580507
scalar FogNoLB.fog[36].dispatcher localJobs_class_1 580507
scalar FogNoLB.fog[36].server[0] rho 0.88611334562302
scalar FogNoLB.fog[36].server[0] congestionRatio 0
scalar FogNoLB.fog[36].server[0] totalJobs 580507
scalar FogNoLB.fog[36].server[0] droppedJobsQueue 117
scalar FogNoLB.fog[36].server[0] droppedJobsTimout 24604
scalar FogNoLB.fog[36].server[0] droppedJobsSLA 0
scalar FogNoLB.fog[36].server[0] droppedJobsTotal 24721
scalar FogNoLB.fog[37].dispatcher localJobs 580220
scalar FogNoLB.fog[37].dispatcher remoteJobs 0
scalar FogNoLB.fog[37].dispatcher probeQueries 0
scalar FogNoLB.fog[37].dispatcher probeAnswers 0
scalar FogNoLB.fog[37].dispatcher droppedJobsSLA 0
scalar FogNoLB.fog[37].dispatcher jobs_class_1 580220
scalar FogNoLB.fog[37].dispatcher localJobs_class_1 580220
scalar FogNoLB.fog[37].server[0] rho 0.88566833734512
scalar FogNoLB.fog[37].server[0] congestionRatio 0
scalar FogNoLB.fog[37].server[0] totalJobs 580220
scalar FogNoLB.fog[37].server[0] droppedJobsQueue 136
scalar FogNoLB.fog[37].server[0] droppedJobsTimout 24321
scalar FogNoLB.fog[37].server[0] droppedJobsSLA 0
scalar FogNoLB.fog[37].server[0] droppedJobsTotal 24457
scalar FogNoLB.fog[38].dispatcher localJobs 581248
scalar FogNoLB.fog[38].dispatcher remoteJobs 0
scalar FogNoLB.fog[38].dispatcher probeQueries 0
scalar FogNoLB.fog[38].dispatcher probeAnswers 0
scalar FogNoLB.fog[38].dispatcher droppedJobsSLA 0
scalar FogNoLB.fog[38].dispatcher jobs_class_1 581248
scalar FogNoLB.fog[38].dispatcher localJobs_class_1 581248
scalar FogNoLB.fog[38].server[0] rho 0.88724422454834
scalar FogNoLB.fog[38].server[0] congestionRatio 0
scalar FogNoLB.fog[38].server[0] totalJobs 581248
scalar FogNoLB.fog[38].server[0] droppedJobsQueue 166
scalar FogNoLB.fog[38].server[0] droppedJobsTimout 24399
scalar FogNoLB.fog[38].server[0] droppedJobsSLA 0
scalar FogNoLB.fog[38].server[0] droppedJobsTotal 24565
scalar FogNoLB.fog[39].dispatcher localJobs 583031
scalar FogNoLB.fog[39].dispatcher remoteJobs 0
scalar FogNoLB.fog[39].dispatcher probeQueries 0
scalar FogNoLB.fog[39].dispatcher probeAnswers 0
scalar FogNoLB.fog[39].dispatcher droppedJobsSLA 0
scalar FogNoLB.fog[39].dispatcher jobs_class_1 583031
scalar FogNoLB.fog[39].dispatcher localJobs_class_1 583031
scalar FogNoLB.fog[39].server[0] rho 0.88936108350754
scalar FogNoLB.fog[39].server[0] congestionRatio 0
scalar FogNoLB.fog[39].server[0] totalJobs 583031
scalar FogNoLB.fog[39].server[0] droppedJobsQueue 140
scalar FogNoLB.fog[39].server[0] droppedJobsTimout 26124
scalar FogNoLB.fog[39].server[0] droppedJobsSLA 0
scalar FogNoLB.fog[39].server[0] droppedJobsTotal 26264
scalar FogNoLB.fog[40].dispatcher localJobs 581855
scalar FogNoLB.fog[40].dispatcher remoteJobs 0
scalar FogNoLB.fog[40].dispatcher probeQueries 0
scalar FogNoLB.fog[40].dispatcher probeAnswers 0
scalar FogNoLB.fog[40].dispatcher droppedJobsSLA 0
scalar FogNoLB.fog[40].dispatcher jobs_class_1 581855
scalar FogNoLB.fog[40].dispatcher localJobs_class_1 581855
scalar FogNoLB.fog[40].server[0] rho 0.88804972171783
scalar FogNoLB.fog[40].server[0] congestionRatio 0
scalar FogNoLB.fog[40].server[0] totalJobs 581855
scalar FogNoLB.fog[40].server[0] droppedJobsQueue 149
scalar FogNoLB.fog[40].server[0] droppedJobsTimout 24675
scalar FogNoLB.fog[40].server[0] droppedJobsSLA 0
scalar FogNoLB.fog[40].server[0] droppedJobsTotal 24824
scalar FogNoLB.fog[41].dispatcher localJobs 582692
scalar FogNoLB.fog[41].dispatcher remoteJobs 0
scalar FogNoLB.fog[41].dispatcher probeQueries 0
scalar FogNoLB.fog[41].dispatcher probeAnswers 0
scalar FogNoLB.fog[41].dispatcher droppedJobsSLA 0
scalar FogNoLB.fog[41].dispatcher jobs_class_1 582692
scalar FogNoLB.fog[41].dispatcher localJobs_class_1 582692
scalar FogNoLB.fog[41].server[0] rho 0.88892161846161
scalar FogNoLB.fog[41].server[0] congestionRatio 0
scalar FogNoLB.fog[41].server[0] totalJobs 582692
scalar FogNoLB.fog[41].server[0] droppedJobsQueue 165
scalar FogNoLB.fog[41].server[0] droppedJobsTimout 25824
scalar FogNoLB.fog[41].server[0] droppedJobsSLA 0
scalar FogNoLB.fog[41].server[0] droppedJobsTotal 25989
scalar FogNoLB.fog[42].dispatcher localJobs 582171
scalar FogNoLB.fog[42].dispatcher remoteJobs 0
scalar FogNoLB.fog[42].dispatcher probeQueries 0
scalar FogNoLB.fog[42].dispatcher probeAnswers 0
scalar FogNoLB.fog[42].dispatcher droppedJobsSLA 0
scalar FogNoLB.fog[42].dispatcher jobs_class_1 582171
scalar FogNoLB.fog[42].dispatcher localJobs_class_1 582171
scalar FogNoLB.fog[42].server[0] rho 0.88848358392715
scalar FogNoLB.fog[42].server[0] congestionRatio 0
scalar FogNoLB.fog[42].server[0] totalJobs 582171
scalar FogNoLB.fog[42].server[0] droppedJobsQueue 112
scalar FogNoLB.fog[42].server[0] droppedJobsTimout 25179
scalar FogNoLB.fog[42].server[0] droppedJobsSLA 0
scalar FogNoLB.fog[42].server[0] droppedJobsTotal 25291
scalar FogNoLB.fog[43].dispatcher localJobs 582237
scalar FogNoLB.fog[43].dispatcher remoteJobs 0
scalar FogNoLB.fog[43].dispatcher probeQueries 0
scalar FogNoLB.fog[43].dispatcher probeAnswers 0
scalar FogNoLB.fog[43].dispatcher droppedJobsSLA 0
scalar FogNoLB.fog[43].dispatcher jobs_class_1 582237
scalar FogNoLB.fog[43].dispatcher localJobs_class_1 582237
scalar FogNoLB.fog[43].server[0] rho 0.8883975148201
scalar FogNoLB.fog[43].server[0] congestionRatio 0
scalar FogNoLB.fog[43].server[0] totalJobs 582237
scalar FogNoLB.fog[43].server[0] droppedJobsQueue 149
scalar FogNoLB.fog[43].server[0] droppedJobsTimout 25074
scalar FogNoLB.fog[43].server[0] droppedJobsSLA 0
scalar FogNoLB.fog[43].server[0] droppedJobsTotal 25223
scalar FogNoLB.fog[44].dispatcher localJobs 582260
scalar FogNoLB.fog[44].dispatcher remoteJobs 0
scalar FogNoLB.fog[44].dispatcher probeQueries 0
scalar FogNoLB.fog[44].dispatcher probeAnswers 0
scalar FogNoLB.fog[44].dispatcher droppedJobsSLA 0
scalar FogNoLB.fog[44].dispatcher jobs_class_1 582260
scalar FogNoLB.fog[44].dispatcher localJobs_class_1 582260
scalar FogNoLB.fog[44].server[0] rho 0.88857609033585
scalar FogNoLB.fog[44].server[0] congestionRatio 0
scalar FogNoLB.fog[44].server[0] totalJobs 582260
scalar FogNoLB.fog[44].server[0] droppedJobsQueue 160
scalar FogNoLB.fog[44].server[0] droppedJobsTimout 24840
scalar FogNoLB.fog[44].server[0] droppedJobsSLA 0
scalar FogNoLB.fog[44].server[0] droppedJobsTotal 25000
scalar FogNoLB.fog[45].dispatcher localJobs 582482
scalar FogNoLB.fog[45].dispatcher remoteJobs 0
scalar FogNoLB.fog[45].dispatcher probeQueries 0
scalar FogNoLB.fog[45].dispatcher probeAnswers 0
scalar FogNoLB.fog[45].dispatcher droppedJobsSLA 0
scalar FogNoLB.fog[45].dispatcher jobs_class_1 582482
scalar FogNoLB.fog[45].dispatcher localJobs_class_1 582482
scalar FogNoLB.fog[45].server[0] rho 0.88850909471512
scalar FogNoLB.fog[45].server[0] congestionRatio 0
scalar FogNoLB.fog[45].server[0] totalJobs 582482
scalar FogNoLB.fog[45].server[0] droppedJobsQueue 150
scalar FogNoLB.fog[45].server[0] droppedJobsTimout 25840
scalar FogNoLB.fog[45].server[0] droppedJobsSLA 0
scalar FogNoLB.fog[45].server[0] droppedJobsTotal 25990
scalar FogNoLB.fog[46].dispatcher localJobs 581574
scalar FogNoLB.fog[46].dispatcher remoteJobs 0
scalar FogNoLB.fog[46].dispatcher probeQueries 0
scalar FogNoLB.fog[46].dispatcher probeAnswers 0
scalar FogNoLB.fog[46].dispatcher droppedJobsSLA 0
scalar FogNoLB.fog[46].dispatcher jobs_class_1 581574
scalar FogNoLB.fog[46].dispatcher localJobs_class_1 581574
scalar FogNoLB.fog[46].server[0] rho 0.88785576820374
scalar FogNoLB.fog[46].server[0] congestionRatio 0
scalar FogNoLB.fog[46].server[0] totalJobs 581574
scalar FogNoLB.fog[46].server[0] droppedJobsQueue 121
scalar FogNoLB.fog[46].server[0] droppedJobsTimout 24572
scalar FogNoLB.fog[46].server[0] droppedJobsSLA 0
scalar FogNoLB.fog[46].server[0] droppedJobsTotal 24693
scalar FogNoLB.fog[47].dispatcher localJobs 582136
scalar FogNoLB.fog[47].dispatcher remoteJobs 0
scalar FogNoLB.fog[47].dispatcher probeQueries 0
scalar FogNoLB.fog[47].dispatcher probeAnswers 0
scalar FogNoLB.fog[47].dispatcher droppedJobsSLA 0
scalar FogNoLB.fog[47].dispatcher jobs_class_1 582136
scalar FogNoLB.fog[47].dispatcher localJobs_class_1 582136
scalar FogNoLB.fog[47].server[0] rho 0.88859331607819
scalar FogNoLB.fog[47].server[0] congestionRatio 0
scalar FogNoLB.fog[47].server[0] totalJobs 582136
scalar FogNoLB.fog[47].server[0] droppedJobsQueue 137
scalar FogNoLB.fog[47].server[0] droppedJobsTimout 24599
scalar FogNoLB.fog[47].server[0] droppedJobsSLA 0
scalar FogNoLB.fog[47].server[0] droppedJobsTotal 24736
scalar FogNoLB.fog[48].dispatcher localJobs 582643
scalar FogNoLB.fog[48].dispatcher remoteJobs 0
scalar FogNoLB.fog[48].dispatcher probeQueries 0
scalar FogNoLB.fog[48].dispatcher probeAnswers 0
scalar FogNoLB.fog[48].dispatcher droppedJobsSLA 0
scalar FogNoLB.fog[48].dispatcher jobs_class_1 582643
scalar FogNoLB.fog[48].dispatcher localJobs_class_1 582643
scalar FogNoLB.fog[48].server[0] rho 0.8885350227356
scalar FogNoLB.fog[48].server[0] congestionRatio 0
scalar FogNoLB.fog[48].server[0] totalJobs 582643
scalar FogNoLB.fog[48].server[0] droppedJobsQueue 134
scalar FogNoLB.fog[48].server[0] droppedJobsTimout 26136
scalar FogNoLB.fog[48].server[0] droppedJobsSLA 0
scalar FogNoLB.fog[48].server[0] droppedJobsTotal 26270
scalar FogNoLB.fog[49].dispatcher localJobs 581920
scalar FogNoLB.fog[49].dispatcher remoteJobs 0
scalar FogNoLB.fog[49].dispatcher probeQueries 0
scalar FogNoLB.fog[49].dispatcher probeAnswers 0
scalar FogNoLB.fog[49].dispatcher droppedJobsSLA 0
scalar FogNoLB.fog[49].dispatcher jobs_class_1 581920
scalar FogNoLB.fog[49].dispatcher localJobs_class_1 581920
scalar FogNoLB.fog[49].server[0] rho 0.88799691200256
scalar FogNoLB.fog[49].server[0] congestionRatio 0
scalar FogNoLB.fog[49].server[0] totalJobs 581920
scalar FogNoLB.fog[49].server[0] droppedJobsQueue 154
scalar FogNoLB.fog[49].server[0] droppedJobsTimout 25194
scalar FogNoLB.fog[49].server[0] droppedJobsSLA 0
scalar FogNoLB.fog[49].server[0] droppedJobsTotal 25348
scalar FogNoLB.fog[50].dispatcher localJobs 582774
scalar FogNoLB.fog[50].dispatcher remoteJobs 0
scalar FogNoLB.fog[50].dispatcher probeQueries 0
scalar FogNoLB.fog[50].dispatcher probeAnswers 0
scalar FogNoLB.fog[50].dispatcher droppedJobsSLA 0
scalar FogNoLB.fog[50].dispatcher jobs_class_1 582774
scalar FogNoLB.fog[50].dispatcher localJobs_class_1 582774
scalar FogNoLB.fog[50].server[0] rho 0.88864302635193
scalar FogNoLB.fog[50].server[0] congestionRatio 0
scalar FogNoLB.fog[50].server[0] totalJobs 582774
scalar FogNoLB.fog[50].server[0] droppedJobsQueue 185
scalar FogNoLB.fog[50].server[0] droppedJobsTimout 26141
scalar FogNoLB.fog[50].server[0] droppedJobsSLA 0
scalar FogNoLB.fog[50].server[0] droppedJobsTotal 26326
scalar FogNoLB.fog[51].dispatcher localJobs 580795
scalar FogNoLB.fog[51].dispatcher remoteJobs 0
scalar FogNoLB.fog[51].dispatcher probeQueries 0
scalar FogNoLB.fog[51].dispatcher probeAnswers 0
scalar FogNoLB.fog[51].dispatcher droppedJobsSLA 0
scalar FogNoLB.fog[51].dispatcher jobs_class_1 580795
scalar FogNoLB.fog[51].dispatcher localJobs_class_1 580795
scalar FogNoLB.fog[51].server[0] rho 0.88648587465286
scalar FogNoLB.fog[51].server[0] congestionRatio 0
scalar FogNoLB.fog[51].server[0] totalJobs 580795
scalar FogNoLB.fog[51].server[0] droppedJobsQueue 140
scalar FogNoLB.fog[51].server[0] droppedJobsTimout 24627
scalar FogNoLB.fog[51].server[0] droppedJobsSLA 0
scalar FogNoLB.fog[51].server[0] droppedJobsTotal 24767
scalar FogNoLB.fog[52].dispatcher localJobs 580923
scalar FogNoLB.fog[52].dispatcher remoteJobs 0
scalar FogNoLB.fog[52].dispatcher probeQueries 0
scalar FogNoLB.fog[52].dispatcher probeAnswers 0
scalar FogNoLB.fog[52].dispatcher droppedJobsSLA 0
scalar FogNoLB.fog[52].dispatcher jobs_class_1 580923
scalar FogNoLB.fog[52].dispatcher localJobs_class_1 580923
scalar FogNoLB.fog[52].server[0] rho 0.88682276010513
scalar FogNoLB.fog[52].server[0] congestionRatio 0
scalar FogNoLB.fog[52].server[0] totalJobs 580923
scalar FogNoLB.fog[52].server[0] droppedJobsQueue 145
scalar FogNoLB.fog[52].server[0] droppedJobsTimout 24546
scalar FogNoLB.fog[52].server[0] droppedJobsSLA 0
scalar FogNoLB.fog[52].server[0] droppedJobsTotal 24691
scalar FogNoLB.fog[53].dispatcher localJobs 582299
scalar FogNoLB.fog[53].dispatcher remoteJobs 0
scalar FogNoLB.fog[53].dispatcher probeQueries 0
scalar FogNoLB.fog[53].dispatcher probeAnswers 0
scalar FogNoLB.fog[53].dispatcher droppedJobsSLA 0
scalar FogNoLB.fog[53].dispatcher jobs_class_1 582299
scalar FogNoLB.fog[53].dispatcher localJobs_class_1 582299
scalar FogNoLB.fog[53].server[0] rho 0.88916212320328
scalar FogNoLB.fog[53].server[0] congestionRatio 0
scalar FogNoLB.fog[53].server[0] totalJobs 582299
scalar FogNoLB.fog[53].server[0] droppedJobsQueue 117
scalar FogNoLB.fog[53].server[0] droppedJobsTimout 24252
scalar FogNoLB.fog[53].server[0] droppedJobsSLA 0
scalar FogNoLB.fog[53].server[0] droppedJobsTotal 24369
scalar FogNoLB.fog[54].dispatcher localJobs 581815
scalar FogNoLB.fog[54].dispatcher remoteJobs 0
scalar FogNoLB.fog[54].dispatcher probeQueries 0
scalar FogNoLB.fog[54].dispatcher probeAnswers 0
scalar FogNoLB.fog[54].dispatcher droppedJobsSLA 0
scalar FogNoLB.fog[54].dispatcher jobs_class_1 581815
scalar FogNoLB.fog[54].dispatcher localJobs_class_1 581815
scalar FogNoLB.fog[54].server[0] rho 0.8883969783783
scalar FogNoLB.fog[54].server[0] congestionRatio 0
scalar FogNoLB.fog[54].server[0] totalJobs 581815
scalar FogNoLB.fog[54].server[0] droppedJobsQueue 143
scalar FogNoLB.fog[54].server[0] droppedJobsTimout 24326
scalar FogNoLB.fog[54].server[0] droppedJobsSLA 0
scalar FogNoLB.fog[54].server[0] droppedJobsTotal 24469
scalar FogNoLB.fog[55].dispatcher localJobs 580214
scalar FogNoLB.fog[55].dispatcher remoteJobs 0
scalar FogNoLB.fog[55].dispatcher probeQueries 0
scalar FogNoLB.fog[55].dispatcher probeAnswers 0
scalar FogNoLB.fog[55].dispatcher droppedJobsSLA 0
scalar FogNoLB.fog[55].dispatcher jobs_class_1 580214
scalar FogNoLB.fog[55].dispatcher localJobs_class_1 580214
scalar FogNoLB.fog[55].server[0] rho 0.88590908050537
scalar FogNoLB.fog[55].server[0] congestionRatio 0
scalar FogNoLB.fog[55].server[0] totalJobs 580214
scalar FogNoLB.fog[55].server[0] droppedJobsQueue 169
scalar FogNoLB.fog[55].server[0] droppedJobsTimout 23632
scalar FogNoLB.fog[55].server[0] droppedJobsSLA 0
scalar FogNoLB.fog[55].server[0] droppedJobsTotal 23801
scalar FogNoLB.fog[56].dispatcher localJobs 582187
scalar FogNoLB.fog[56].dispatcher remoteJobs 0
scalar FogNoLB.fog[56].dispatcher probeQueries 0
scalar FogNoLB.fog[56].dispatcher probeAnswers 0
scalar FogNoLB.fog[56].dispatcher droppedJobsSLA 0
scalar FogNoLB.fog[56].dispatcher jobs_class_1 582187
scalar FogNoLB.fog[56].dispatcher localJobs_class_1 582187
scalar FogNoLB.fog[56].server[0] rho 0.8880587220192
scalar FogNoLB.fog[56].server[0] congestionRatio 0
scalar FogNoLB.fog[56].server[0] totalJobs 582187
scalar FogNoLB.fog[56].server[0] droppedJobsQueue 166
scalar FogNoLB.fog[56].server[0] droppedJobsTimout 25782
scalar FogNoLB.fog[56].server[0] droppedJobsSLA 0
scalar FogNoLB.fog[56].server[0] droppedJobsTotal 25948
scalar FogNoLB.fog[57].dispatcher localJobs 582088
scalar FogNoLB.fog[57].dispatcher remoteJobs 0
scalar FogNoLB.fog[57].dispatcher probeQueries 0
scalar FogNoLB.fog[57].dispatcher probeAnswers 0
scalar FogNoLB.fog[57].dispatcher droppedJobsSLA 0
scalar FogNoLB.fog[57].dispatcher jobs_class_1 582088
scalar FogNoLB.fog[57].dispatcher localJobs_class_1 582088
scalar FogNoLB.fog[57].server[0] rho 0.88834822177887
scalar FogNoLB.fog[57].server[0] congestionRatio 0
scalar FogNoLB.fog[57].server[0] totalJobs 582088
scalar FogNoLB.fog[57].server[0] droppedJobsQueue 140
scalar FogNoLB.fog[57].server[0] droppedJobsTimout 24848
scalar FogNoLB.fog[57].server[0] droppedJobsSLA 0
scalar FogNoLB.fog[57].server[0] droppedJobsTotal 24988
scalar FogNoLB.fog[58].dispatcher localJobs 580710
scalar FogNoLB.fog[58].dispatcher remoteJobs 0
scalar FogNoLB.fog[58].dispatcher probeQueries 0
scalar FogNoLB.fog[58].dispatcher probeAnswers 0
scalar FogNoLB.fog[58].dispatcher droppedJobsSLA 0
scalar FogNoLB.fog[58].dispatcher jobs_class_1 580710
scalar FogNoLB.fog[58].dispatcher localJobs_class_1 580710
scalar FogNoLB.fog[58].server[0] rho 0.8866776227951
scalar FogNoLB.fog[58].server[0] congestionRatio 0
scalar FogNoLB.fog[58].server[0] totalJobs 580710
scalar FogNoLB.fog[58].server[0] droppedJobsQueue 125
scalar FogNoLB.fog[58].server[0] droppedJobsTimout 24401
scalar FogNoLB.fog[58].server[0] droppedJobsSLA 0
scalar FogNoLB.fog[58].server[0] droppedJobsTotal 24526
scalar FogNoLB.fog[59].dispatcher localJobs 583146
scalar FogNoLB.fog[59].dispatcher remoteJobs 0
scalar FogNoLB.fog[59].dispatcher probeQueries 0
scalar FogNoLB.fog[59].dispatcher probeAnswers 0
scalar FogNoLB.fog[59].dispatcher droppedJobsSLA 0
scalar FogNoLB.fog[59].dispatcher jobs_class_1 583146
scalar FogNoLB.fog[59].dispatcher localJobs_class_1 583146
scalar FogNoLB.fog[59].server[0] rho 0.88963198661804
scalar FogNoLB.fog[59].server[0] congestionRatio 0
scalar FogNoLB.fog[59].server[0] totalJobs 583146
scalar FogNoLB.fog[59].server[0] droppedJobsQueue 127
scalar FogNoLB.fog[59].server[0] droppedJobsTimout 25444
scalar FogNoLB.fog[59].server[0] droppedJobsSLA 0
scalar FogNoLB.fog[59].server[0] droppedJobsTotal 25571
scalar FogNoLB.fog[60].dispatcher localJobs 581280
scalar FogNoLB.fog[60].dispatcher remoteJobs 0
scalar FogNoLB.fog[60].dispatcher probeQueries 0
scalar FogNoLB.fog[60].dispatcher probeAnswers 0
scalar FogNoLB.fog[60].dispatcher droppedJobsSLA 0
scalar FogNoLB.fog[60].dispatcher jobs_class_1 581280
scalar FogNoLB.fog[60].dispatcher localJobs_class_1 581280
scalar FogNoLB.fog[60].server[0] rho 0.88668781518936
scalar FogNoLB.fog[60].server[0] congestionRatio 0
scalar FogNoLB.fog[60].server[0] totalJobs 581280
scalar FogNoLB.fog[60].server[0] droppedJobsQueue 162
scalar FogNoLB.fog[60].server[0] droppedJobsTimout 25606
scalar FogNoLB.fog[60].server[0] droppedJobsSLA 0
scalar FogNoLB.fog[60].server[0] droppedJobsTotal 25768
scalar FogNoLB.fog[61].dispatcher localJobs 582344
scalar FogNoLB.fog[61].dispatcher remoteJobs 0
scalar FogNoLB.fog[61].dispatcher probeQueries 0
scalar FogNoLB.fog[61].dispatcher probeAnswers 0
scalar FogNoLB.fog[61].dispatcher droppedJobsSLA 0
scalar FogNoLB.fog[61].dispatcher jobs_class_1 582344
scalar FogNoLB.fog[61].dispatcher localJobs_class_1 582344
scalar FogNoLB.fog[61].server[0] rho 0.88856357336044
scalar FogNoLB.fog[61].server[0] congestionRatio 0
scalar FogNoLB.fog[61].server[0] totalJobs 582344
scalar FogNoLB.fog[61].server[0] droppedJobsQueue 195
scalar FogNoLB.fog[61].server[0] droppedJobsTimout 25183
scalar FogNoLB.fog[61].server[0] droppedJobsSLA 0
scalar FogNoLB.fog[61].server[0] droppedJobsTotal 25378
scalar FogNoLB.fog[62].dispatcher localJobs 582382
scalar FogNoLB.fog[62].dispatcher remoteJobs 0
scalar FogNoLB.fog[62].dispatcher probeQueries 0
scalar FogNoLB.fog[62].dispatcher probeAnswers 0
scalar FogNoLB.fog[62].dispatcher droppedJobsSLA 0
scalar FogNoLB.fog[62].dispatcher jobs_class_1 582382
scalar FogNoLB.fog[62].dispatcher localJobs_class_1 582382
scalar FogNoLB.fog[62].server[0] rho 0.88867092132568
scalar FogNoLB.fog[62].server[0] congestionRatio 0
scalar FogNoLB.fog[62].server[0] totalJobs 582382
scalar FogNoLB.fog[62].server[0] droppedJobsQueue 182
scalar FogNoLB.fog[62].server[0] droppedJobsTimout 25113
scalar FogNoLB.fog[62].server[0] droppedJobsSLA 0
scalar FogNoLB.fog[62].server[0] droppedJobsTotal 25295
scalar FogNoLB.fog[63].dispatcher localJobs 581424
scalar FogNoLB.fog[63].dispatcher remoteJobs 0
scalar FogNoLB.fog[63].dispatcher probeQueries 0
scalar FogNoLB.fog[63].dispatcher probeAnswers 0
scalar FogNoLB.fog[63].dispatcher droppedJobsSLA 0
scalar FogNoLB.fog[63].dispatcher jobs_class_1 581424
scalar FogNoLB.fog[63].dispatcher localJobs_class_1 581424
scalar FogNoLB.fog[63].server[0] rho 0.88687485456467
scalar FogNoLB.fog[63].server[0] congestionRatio 0
scalar FogNoLB.fog[63].server[0] totalJobs 581424
scalar FogNoLB.fog[63].server[0] droppedJobsQueue 172
scalar FogNoLB.fog[63].server[0] droppedJobsTimout 25514
scalar FogNoLB.fog[63].server[0] droppedJobsSLA 0
scalar FogNoLB.fog[63].server[0] droppedJobsTotal 25686
scalar FogNoLB.fog[64].dispatcher localJobs 583091
scalar FogNoLB.fog[64].dispatcher remoteJobs 0
scalar FogNoLB.fog[64].dispatcher probeQueries 0
scalar FogNoLB.fog[64].dispatcher probeAnswers 0
scalar FogNoLB.fog[64].dispatcher droppedJobsSLA 0
scalar FogNoLB.fog[64].dispatcher jobs_class_1 583091
scalar FogNoLB.fog[64].dispatcher localJobs_class_1 583091
scalar FogNoLB.fog[64].server[0] rho 0.89014035463333
scalar FogNoLB.fog[64].server[0] congestionRatio 0
scalar FogNoLB.fog[64].server[0] totalJobs 583091
scalar FogNoLB.fog[64].server[0] droppedJobsQueue 136
scalar FogNoLB.fog[64].server[0] droppedJobsTimout 24706
scalar FogNoLB.fog[64].server[0] droppedJobsSLA 0
scalar FogNoLB.fog[64].server[0] droppedJobsTotal 24842
scalar FogNoLB.fog[65].dispatcher localJobs 581027
scalar FogNoLB.fog[65].dispatcher remoteJobs 0
scalar FogNoLB.fog[65].dispatcher probeQueries 0
scalar FogNoLB.fog[65].dispatcher probeAnswers 0
scalar FogNoLB.fog[65].dispatcher droppedJobsSLA 0
scalar FogNoLB.fog[65].dispatcher jobs_class_1 581027
scalar FogNoLB.fog[65].dispatcher localJobs_class_1 581027
scalar FogNoLB.fog[65].server[0] rho 0.88685196638107
scalar FogNoLB.fog[65].server[0] congestionRatio 0
scalar FogNoLB.fog[65].server[0] totalJobs 581027
scalar FogNoLB.fog[65].server[0] droppedJobsQueue 147
scalar FogNoLB.fog[65].server[0] droppedJobsTimout 24571
scalar FogNoLB.fog[65].server[0] droppedJobsSLA 0
scalar FogNoLB.fog[65].server[0] droppedJobsTotal 24718
scalar FogNoLB.fog[66].dispatcher localJobs 580512
scalar FogNoLB.fog[66].dispatcher remoteJobs 0
scalar FogNoLB.fog[66].dispatcher probeQueries 0
scalar FogNoLB.fog[66].dispatcher probeAnswers 0
scalar FogNoLB.fog[66].dispatcher droppedJobsSLA 0
scalar FogNoLB.fog[66].dispatcher jobs_class_1 580512
scalar FogNoLB.fog[66].dispatcher localJobs_class_1 580512
scalar FogNoLB.fog[66].server[0] rho 0.88628435134888
scalar FogNoLB.fog[66].server[0] congestionRatio 0
scalar FogNoLB.fog[66].server[0] totalJobs 580512
scalar FogNoLB.fog[66].server[0] droppedJobsQueue 129
scalar FogNoLB.fog[66].server[0] droppedJobsTimout 24299
scalar FogNoLB.fog[66].server[0] droppedJobsSLA 0
scalar FogNoLB.fog[66].server[0] droppedJobsTotal 24428
scalar FogNoLB.fog[67].dispatcher localJobs 582653
scalar FogNoLB.fog[67].dispatcher remoteJobs 0
scalar FogNoLB.fog[67].dispatcher probeQueries 0
scalar FogNoLB.fog[67].dispatcher probeAnswers 0
scalar FogNoLB.fog[67].dispatcher droppedJobsSLA 0
scalar FogNoLB.fog[67].dispatcher jobs_class_1 582653
scalar FogNoLB.fog[67].dispatcher localJobs_class_1 582653
scalar FogNoLB.fog[67].server[0] rho 0.88872969150543
scalar FogNoLB.fog[67].server[0] congestionRatio 0
scalar FogNoLB.fog[67].server[0] totalJobs 582653
scalar FogNoLB.fog[67].server[0] droppedJobsQueue 178
scalar FogNoLB.fog[67].server[0] droppedJobsTimout 25595
scalar FogNoLB.fog[67].server[0] droppedJobsSLA 0
scalar FogNoLB.fog[67].server[0] droppedJobsTotal 25773
scalar FogNoLB.fog[68].dispatcher localJobs 583213
scalar FogNoLB.fog[68].dispatcher remoteJobs 0
scalar FogNoLB.fog[68].dispatcher probeQueries 0
scalar FogNoLB.fog[68].dispatcher probeAnswers 0
scalar FogNoLB.fog[68].dispatcher droppedJobsSLA 0
scalar FogNoLB.fog[68].dispatcher jobs_class_1 583213
scalar FogNoLB.fog[68].dispatcher localJobs_class_1 583213
scalar FogNoLB.fog[68].server[0] rho 0.88908040523529
scalar FogNoLB.fog[68].server[0] congestionRatio 0
scalar FogNoLB.fog[68].server[0] totalJobs 583213
scalar FogNoLB.fog[68].server[0] droppedJobsQueue 158
scalar FogNoLB.fog[68].server[0] droppedJobsTimout 26431
scalar FogNoLB.fog[68].server[0] droppedJobsSLA 0
scalar FogNoLB.fog[68].server[0] droppedJobsTotal 26589
scalar FogNoLB.fog[69].dispatcher localJobs 582217
scalar FogNoLB.fog[69].dispatcher remoteJobs 0
scalar FogNoLB.fog[69].dispatcher probeQueries 0
scalar FogNoLB.fog[69].dispatcher probeAnswers 0
scalar FogNoLB.fog[69].dispatcher droppedJobsSLA 0
scalar FogNoLB.fog[69].dispatcher jobs_class_1 582217
scalar FogNoLB.fog[69].dispatcher localJobs_class_1 582217
scalar FogNoLB.fog[69].server[0] rho 0.88883453607559
scalar FogNoLB.fog[69].server[0] congestionRatio 0
scalar FogNoLB.fog[69].server[0] totalJobs 582217
scalar FogNoLB.fog[69].server[0] droppedJobsQueue 145
scalar FogNoLB.fog[69].server[0] droppedJobsTimout 24733
scalar FogNoLB.fog[69].server[0] droppedJobsSLA 0
scalar FogNoLB.fog[69].server[0] droppedJobsTotal 24878
scalar FogNoLB.fog[70].dispatcher localJobs 581723
scalar FogNoLB.fog[70].dispatcher remoteJobs 0
scalar FogNoLB.fog[70].dispatcher probeQueries 0
scalar FogNoLB.fog[70].dispatcher probeAnswers 0
scalar FogNoLB.fog[70].dispatcher droppedJobsSLA 0
scalar FogNoLB.fog[70].dispatcher jobs_class_1 581723
scalar FogNoLB.fog[70].dispatcher localJobs_class_1 581723
scalar FogNoLB.fog[70].server[0] rho 0.88785344362259
scalar FogNoLB.fog[70].server[0] congestionRatio 0
scalar FogNoLB.fog[70].server[0] totalJobs 581723
scalar FogNoLB.fog[70].server[0] droppedJobsQueue 144
scalar FogNoLB.fog[70].server[0] droppedJobsTimout 24595
scalar FogNoLB.fog[70].server[0] droppedJobsSLA 0
scalar FogNoLB.fog[70].server[0] droppedJobsTotal 24739
scalar FogNoLB.fog[71].dispatcher localJobs 583665
scalar FogNoLB.fog[71].dispatcher remoteJobs 0
scalar FogNoLB.fog[71].dispatcher probeQueries 0
scalar FogNoLB.fog[71].dispatcher probeAnswers 0
scalar FogNoLB.fog[71].dispatcher droppedJobsSLA 0
scalar FogNoLB.fog[71].dispatcher jobs_class_1 583665
scalar FogNoLB.fog[71].dispatcher localJobs_class_1 583665
scalar FogNoLB.fog[71].server[0] rho 0.889803647995
scalar FogNoLB.fog[71].server[0] congestionRatio 0
scalar FogNoLB.fog[71].server[0] totalJobs 583665
scalar FogNoLB.fog[71].server[0] droppedJobsQueue 155
scalar FogNoLB.fog[71].server[0] droppedJobsTimout 26778
scalar FogNoLB.fog[71].server[0] droppedJobsSLA 0
scalar FogNoLB.fog[71].server[0] droppedJobsTotal 26933
scalar FogNoLB.fog[72].dispatcher localJobs 581780
scalar FogNoLB.fog[72].dispatcher remoteJobs 0
scalar FogNoLB.fog[72].dispatcher probeQueries 0
scalar FogNoLB.fog[72].dispatcher probeAnswers 0
scalar FogNoLB.fog[72].dispatcher droppedJobsSLA 0
scalar FogNoLB.fog[72].dispatcher jobs_class_1 581780
scalar FogNoLB.fog[72].dispatcher localJobs_class_1 581780
scalar FogNoLB.fog[72].server[0] rho 0.88813763856888
scalar FogNoLB.fog[72].server[0] congestionRatio 0
scalar FogNoLB.fog[72].server[0] totalJobs 581780
scalar FogNoLB.fog[72].server[0] droppedJobsQueue 158
scalar FogNoLB.fog[72].server[0] droppedJobsTimout 24675
scalar FogNoLB.fog[72].server[0] droppedJobsSLA 0
scalar FogNoLB.fog[72].server[0] droppedJobsTotal 24833
scalar FogNoLB.fog[73].dispatcher localJobs 582969
scalar FogNoLB.fog[73].dispatcher remoteJobs 0
scalar FogNoLB.fog[73].dispatcher probeQueries 0
scalar FogNoLB.fog[73].dispatcher probeAnswers 0
scalar FogNoLB.fog[73].dispatcher droppedJobsSLA 0
scalar FogNoLB.fog[73].dispatcher jobs_class_1 582969
scalar FogNoLB.fog[73].dispatcher localJobs_class_1 582969
scalar FogNoLB.fog[73].server[0] rho 0.88912928104401
scalar FogNoLB.fog[73].server[0] congestionRatio 0
scalar FogNoLB.fog[73].server[0] totalJobs 582969
scalar FogNoLB.fog[73].server[0] droppedJobsQueue 133
scalar FogNoLB.fog[73].server[0] droppedJobsTimout 26166
scalar FogNoLB.fog[73].server[0] droppedJobsSLA 0
scalar FogNoLB.fog[73].server[0] droppedJobsTotal 26299
scalar FogNoLB.fog[74].dispatcher localJobs 581762
scalar FogNoLB.fog[74].dispatcher remoteJobs 0
scalar FogNoLB.fog[74].dispatcher probeQueries 0
scalar FogNoLB.fog[74].dispatcher probeAnswers 0
scalar FogNoLB.fog[74].dispatcher droppedJobsSLA 0
scalar FogNoLB.fog[74].dispatcher jobs_class_1 581762
scalar FogNoLB.fog[74].dispatcher localJobs_class_1 581762
scalar FogNoLB.fog[74].server[0] rho 0.88820576667786
scalar FogNoLB.fog[74].server[0] congestionRatio 0
scalar FogNoLB.fog[74].server[0] totalJobs 581762
scalar FogNoLB.fog[74].server[0] droppedJobsQueue 144
scalar FogNoLB.fog[74].server[0] droppedJobsTimout 24102
scalar FogNoLB.fog[74].server[0] droppedJobsSLA 0
scalar FogNoLB.fog[74].server[0] droppedJobsTotal 24246
scalar FogNoLB.fog[75].dispatcher localJobs 581326
scalar FogNoLB.fog[75].dispatcher remoteJobs 0
scalar FogNoLB.fog[75].dispatcher probeQueries 0
scalar FogNoLB.fog[75].dispatcher probeAnswers 0
scalar FogNoLB.fog[75].dispatcher droppedJobsSLA 0
scalar FogNoLB.fog[75].dispatcher jobs_class_1 581326
scalar FogNoLB.fog[75].dispatcher localJobs_class_1 581326
scalar FogNoLB.fog[75].server[0] rho 0.88677507638931
scalar FogNoLB.fog[75].server[0] congestionRatio 0
scalar FogNoLB.fog[75].server[0] totalJobs 581326
scalar FogNoLB.fog[75].server[0] droppedJobsQueue 169
scalar FogNoLB.fog[75].server[0] droppedJobsTimout 25489
scalar FogNoLB.fog[75].server[0] droppedJobsSLA 0
scalar FogNoLB.fog[75].server[0] droppedJobsTotal 25658
scalar FogNoLB.fog[76].dispatcher localJobs 582696
scalar FogNoLB.fog[76].dispatcher remoteJobs 0
scalar FogNoLB.fog[76].dispatcher probeQueries 0
scalar FogNoLB.fog[76].dispatcher probeAnswers 0
scalar FogNoLB.fog[76].dispatcher droppedJobsSLA 0
scalar FogNoLB.fog[76].dispatcher jobs_class_1 582696
scalar FogNoLB.fog[76].dispatcher localJobs_class_1 582696
scalar FogNoLB.fog[76].server[0] rho 0.88923192024231
scalar FogNoLB.fog[76].server[0] congestionRatio 0
scalar FogNoLB.fog[76].server[0] totalJobs 582696
scalar FogNoLB.fog[76].server[0] droppedJobsQueue 144
scalar FogNoLB.fog[76].server[0] droppedJobsTimout 24990
scalar FogNoLB.fog[76].server[0] droppedJobsSLA 0
scalar FogNoLB.fog[76].server[0] droppedJobsTotal 25134
scalar FogNoLB.fog[77].dispatcher localJobs 580824
scalar FogNoLB.fog[77].dispatcher remoteJobs 0
scalar FogNoLB.fog[77].dispatcher probeQueries 0
scalar FogNoLB.fog[77].dispatcher probeAnswers 0
scalar FogNoLB.fog[77].dispatcher droppedJobsSLA 0
scalar FogNoLB.fog[77].dispatcher jobs_class_1 580824
scalar FogNoLB.fog[77].dispatcher localJobs_class_1 580824
scalar FogNoLB.fog[77].server[0] rho 0.88649100065231
scalar FogNoLB.fog[77].server[0] congestionRatio 0
scalar FogNoLB.fog[77].server[0] totalJobs 580824
scalar FogNoLB.fog[77].server[0] droppedJobsQueue 150
scalar FogNoLB.fog[77].server[0] droppedJobsTimout 24202
scalar FogNoLB.fog[77].server[0] droppedJobsSLA 0
scalar FogNoLB.fog[77].server[0] droppedJobsTotal 24352
scalar FogNoLB.fog[78].dispatcher localJobs 582214
scalar FogNoLB.fog[78].dispatcher remoteJobs 0
scalar FogNoLB.fog[78].dispatcher probeQueries 0
scalar FogNoLB.fog[78].dispatcher probeAnswers 0
scalar FogNoLB.fog[78].dispatcher droppedJobsSLA 0
scalar FogNoLB.fog[78].dispatcher jobs_class_1 582214
scalar FogNoLB.fog[78].dispatcher localJobs_class_1 582214
scalar FogNoLB.fog[78].server[0] rho 0.88863432407379
scalar FogNoLB.fog[78].server[0] congestionRatio 0
scalar FogNoLB.fog[78].server[0] totalJobs 582214
scalar FogNoLB.fog[78].server[0] droppedJobsQueue 154
scalar FogNoLB.fog[78].server[0] droppedJobsTimout 24837
scalar FogNoLB.fog[78].server[0] droppedJobsSLA 0
scalar FogNoLB.fog[78].server[0] droppedJobsTotal 24991
scalar FogNoLB.fog[79].dispatcher localJobs 581808
scalar FogNoLB.fog[79].dispatcher remoteJobs 0
scalar FogNoLB.fog[79].dispatcher probeQueries 0
scalar FogNoLB.fog[79].dispatcher probeAnswers 0
scalar FogNoLB.fog[79].dispatcher droppedJobsSLA 0
scalar FogNoLB.fog[79].dispatcher jobs_class_1 581808
scalar FogNoLB.fog[79].dispatcher localJobs_class_1 581808
scalar FogNoLB.fog[79].server[0] rho 0.88768243789673
scalar FogNoLB.fog[79].server[0] congestionRatio 0
scalar FogNoLB.fog[79].server[0] totalJobs 581808
scalar FogNoLB.fog[79].server[0] droppedJobsQueue 141
scalar FogNoLB.fog[79].server[0] droppedJobsTimout 25333
scalar FogNoLB.fog[79].server[0] droppedJobsSLA 0
scalar FogNoLB.fog[79].server[0] droppedJobsTotal 25474
scalar FogNoLB.fog[80].dispatcher localJobs 581575
scalar FogNoLB.fog[80].dispatcher remoteJobs 0
scalar FogNoLB.fog[80].dispatcher probeQueries 0
scalar FogNoLB.fog[80].dispatcher probeAnswers 0
scalar FogNoLB.fog[80].dispatcher droppedJobsSLA 0
scalar FogNoLB.fog[80].dispatcher jobs_class_1 581575
scalar FogNoLB.fog[80].dispatcher localJobs_class_1 581575
scalar FogNoLB.fog[80].server[0] rho 0.88765263557434
scalar FogNoLB.fog[80].server[0] congestionRatio 0
scalar FogNoLB.fog[80].server[0] totalJobs 581575
scalar FogNoLB.fog[80].server[0] droppedJobsQueue 133
scalar FogNoLB.fog[80].server[0] droppedJobsTimout 24850
scalar FogNoLB.fog[80].server[0] droppedJobsSLA 0
scalar FogNoLB.fog[80].server[0] droppedJobsTotal 24983
scalar FogNoLB.fog[81].dispatcher localJobs 580913
scalar FogNoLB.fog[81].dispatcher remoteJobs 0
scalar FogNoLB.fog[81].dispatcher probeQueries 0
scalar FogNoLB.fog[81].dispatcher probeAnswers 0
scalar FogNoLB.fog[81].dispatcher droppedJobsSLA 0
scalar FogNoLB.fog[81].dispatcher jobs_class_1 580913
scalar FogNoLB.fog[81].dispatcher localJobs_class_1 580913
scalar FogNoLB.fog[81].server[0] rho 0.88652062416077
scalar FogNoLB.fog[81].server[0] congestionRatio 0
scalar FogNoLB.fog[81].server[0] totalJobs 580913
scalar FogNoLB.fog[81].server[0] droppedJobsQueue 150
scalar FogNoLB.fog[81].server[0] droppedJobsTimout 24613
scalar FogNoLB.fog[81].server[0] droppedJobsSLA 0
scalar FogNoLB.fog[81].server[0] droppedJobsTotal 24763
scalar FogNoLB.fog[82].dispatcher localJobs 581968
scalar FogNoLB.fog[82].dispatcher remoteJobs 0
scalar FogNoLB.fog[82].dispatcher probeQueries 0
scalar FogNoLB.fog[82].dispatcher probeAnswers 0
scalar FogNoLB.fog[82].dispatcher droppedJobsSLA 0
scalar FogNoLB.fog[82].dispatcher jobs_class_1 581968
scalar FogNoLB.fog[82].dispatcher localJobs_class_1 581968
scalar FogNoLB.fog[82].server[0] rho 0.88713127374649
scalar FogNoLB.fog[82].server[0] congestionRatio 0
scalar FogNoLB.fog[82].server[0] totalJobs 581968
scalar FogNoLB.fog[82].server[0] droppedJobsQueue 177
scalar FogNoLB.fog[82].server[0] droppedJobsTimout 26357
scalar FogNoLB.fog[82].server[0] droppedJobsSLA 0
scalar FogNoLB.fog[82].server[0] droppedJobsTotal 26534
scalar FogNoLB.fog[83].dispatcher localJobs 583028
scalar FogNoLB.fog[83].dispatcher remoteJobs 0
scalar FogNoLB.fog[83].dispatcher probeQueries 0
scalar FogNoLB.fog[83].dispatcher probeAnswers 0
scalar FogNoLB.fog[83].dispatcher droppedJobsSLA 0
scalar FogNoLB.fog[83].dispatcher jobs_class_1 583028
scalar FogNoLB.fog[83].dispatcher localJobs_class_1 583028
scalar FogNoLB.fog[83].server[0] rho 0.88958334922791
scalar FogNoLB.fog[83].server[0] congestionRatio 0
scalar FogNoLB.fog[83].server[0] totalJobs 583028
scalar FogNoLB.fog[83].server[0] droppedJobsQueue 143
scalar FogNoLB.fog[83].server[0] droppedJobsTimout 25256
scalar FogNoLB.fog[83].server[0] droppedJobsSLA 0
scalar FogNoLB.fog[83].server[0] droppedJobsTotal 25399
scalar FogNoLB.fog[84].dispatcher localJobs 581455
scalar FogNoLB.fog[84].dispatcher remoteJobs 0
scalar FogNoLB.fog[84].dispatcher probeQueries 0
scalar FogNoLB.fog[84].dispatcher probeAnswers 0
scalar FogNoLB.fog[84].dispatcher droppedJobsSLA 0
scalar FogNoLB.fog[84].dispatcher jobs_class_1 581455
scalar FogNoLB.fog[84].dispatcher localJobs_class_1 581455
scalar FogNoLB.fog[84].server[0] rho 0.88710731267929
scalar FogNoLB.fog[84].server[0] congestionRatio 0
scalar FogNoLB.fog[84].server[0] totalJobs 581455
scalar FogNoLB.fog[84].server[0] droppedJobsQueue 149
scalar FogNoLB.fog[84].server[0] droppedJobsTimout 25135
scalar FogNoLB.fog[84].server[0] droppedJobsSLA 0
scalar FogNoLB.fog[84].server[0] droppedJobsTotal 25284
scalar FogNoLB.fog[85].dispatcher localJobs 581414
scalar FogNoLB.fog[85].dispatcher remoteJobs 0
scalar FogNoLB.fog[85].dispatcher probeQueries 0
scalar FogNoLB.fog[85].dispatcher probeAnswers 0
scalar FogNoLB.fog[85].dispatcher droppedJobsSLA 0
scalar FogNoLB.fog[85].dispatcher jobs_class_1 581414
scalar FogNoLB.fog[85].dispatcher localJobs_class_1 581414
scalar FogNoLB.fog[85].server[0] rho 0.88743859529495
scalar FogNoLB.fog[85].server[0] congestionRatio 0
scalar FogNoLB.fog[85].server[0] totalJobs 581414
scalar FogNoLB.fog[85].server[0] droppedJobsQueue 162
scalar FogNoLB.fog[85].server[0] droppedJobsTimout 24616
scalar FogNoLB.fog[85].server[0] droppedJobsSLA 0
scalar FogNoLB.fog[85].server[0] droppedJobsTotal 24778
scalar FogNoLB.fog[86].dispatcher localJobs 583244
scalar FogNoLB.fog[86].dispatcher remoteJobs 0
scalar FogNoLB.fog[86].dispatcher probeQueries 0
scalar FogNoLB.fog[86].dispatcher probeAnswers 0
scalar FogNoLB.fog[86].dispatcher droppedJobsSLA 0
scalar FogNoLB.fog[86].dispatcher jobs_class_1 583244
scalar FogNoLB.fog[86].dispatcher localJobs_class_1 583244
scalar FogNoLB.fog[86].server[0] rho 0.88907676935196
scalar FogNoLB.fog[86].server[0] congestionRatio 0
scalar FogNoLB.fog[86].server[0] totalJobs 583244
scalar FogNoLB.fog[86].server[0] droppedJobsQueue 159
scalar FogNoLB.fog[86].server[0] droppedJobsTimout 26595
scalar FogNoLB.fog[86].server[0] droppedJobsSLA 0
scalar FogNoLB.fog[86].server[0] droppedJobsTotal 26754
scalar FogNoLB.fog[87].dispatcher localJobs 581825
scalar FogNoLB.fog[87].dispatcher remoteJobs 0
scalar FogNoLB.fog[87].dispatcher probeQueries 0
scalar FogNoLB.fog[87].dispatcher probeAnswers 0
scalar FogNoLB.fog[87].dispatcher droppedJobsSLA 0
scalar FogNoLB.fog[87].dispatcher jobs_class_1 581825
scalar FogNoLB.fog[87].dispatcher localJobs_class_1 581825
scalar FogNoLB.fog[87].server[0] rho 0.88778865337372
scalar FogNoLB.fog[87].server[0] congestionRatio 0
scalar FogNoLB.fog[87].server[0] totalJobs 581825
scalar FogNoLB.fog[87].server[0] droppedJobsQueue 137
scalar FogNoLB.fog[87].server[0] droppedJobsTimout 25050
scalar FogNoLB.fog[87].server[0] droppedJobsSLA 0
scalar FogNoLB.fog[87].server[0] droppedJobsTotal 25187
scalar FogNoLB.fog[88].dispatcher localJobs 582058
scalar FogNoLB.fog[88].dispatcher remoteJobs 0
scalar FogNoLB.fog[88].dispatcher probeQueries 0
scalar FogNoLB.fog[88].dispatcher probeAnswers 0
scalar FogNoLB.fog[88].dispatcher droppedJobsSLA 0
scalar FogNoLB.fog[88].dispatcher jobs_class_1 582058
scalar FogNoLB.fog[88].dispatcher localJobs_class_1 582058
scalar FogNoLB.fog[88].server[0] rho 0.88795155286789
scalar FogNoLB.fog[88].server[0] congestionRatio 0
scalar FogNoLB.fog[88].server[0] totalJobs 582058
scalar FogNoLB.fog[88].server[0] droppedJobsQueue 132
scalar FogNoLB.fog[88].server[0] droppedJobsTimout 25699
scalar FogNoLB.fog[88].server[0] droppedJobsSLA 0
scalar FogNoLB.fog[88].server[0] droppedJobsTotal 25831
scalar FogNoLB.fog[89].dispatcher localJobs 581661
scalar FogNoLB.fog[89].dispatcher remoteJobs 0
scalar FogNoLB.fog[89].dispatcher probeQueries 0
scalar FogNoLB.fog[89].dispatcher probeAnswers 0
scalar FogNoLB.fog[89].dispatcher droppedJobsSLA 0
scalar FogNoLB.fog[89].dispatcher jobs_class_1 581661
scalar FogNoLB.fog[89].dispatcher localJobs_class_1 581661
scalar FogNoLB.fog[89].server[0] rho 0.88750493526459
scalar FogNoLB.fog[89].server[0] congestionRatio 0
scalar FogNoLB.fog[89].server[0] totalJobs 581661
scalar FogNoLB.fog[89].server[0] droppedJobsQueue 152
scalar FogNoLB.fog[89].server[0] droppedJobsTimout 25484
scalar FogNoLB.fog[89].server[0] droppedJobsSLA 0
scalar FogNoLB.fog[89].server[0] droppedJobsTotal 25636
scalar FogNoLB.fog[90].dispatcher localJobs 583880
scalar FogNoLB.fog[90].dispatcher remoteJobs 0
scalar FogNoLB.fog[90].dispatcher probeQueries 0
scalar FogNoLB.fog[90].dispatcher probeAnswers 0
scalar FogNoLB.fog[90].dispatcher droppedJobsSLA 0
scalar FogNoLB.fog[90].dispatcher jobs_class_1 583880
scalar FogNoLB.fog[90].dispatcher localJobs_class_1 583880
scalar FogNoLB.fog[90].server[0] rho 0.89041382074356
scalar FogNoLB.fog[90].server[0] congestionRatio 0
scalar FogNoLB.fog[90].server[0] totalJobs 583880
scalar FogNoLB.fog[90].server[0] droppedJobsQueue 130
scalar FogNoLB.fog[90].server[0] droppedJobsTimout 26354
scalar FogNoLB.fog[90].server[0] droppedJobsSLA 0
scalar FogNoLB.fog[90].server[0] droppedJobsTotal 26484
scalar FogNoLB.fog[91].dispatcher localJobs 581858
scalar FogNoLB.fog[91].dispatcher remoteJobs 0
scalar FogNoLB.fog[91].dispatcher probeQueries 0
scalar FogNoLB.fog[91].dispatcher probeAnswers 0
scalar FogNoLB.fog[91].dispatcher droppedJobsSLA 0
scalar FogNoLB.fog[91].dispatcher jobs_class_1 581858
scalar FogNoLB.fog[91].dispatcher localJobs_class_1 581858
scalar FogNoLB.fog[91].server[0] rho 0.88780325651169
scalar FogNoLB.fog[91].server[0] congestionRatio 0
scalar FogNoLB.fog[91].server[0] totalJobs 581858
scalar FogNoLB.fog[91].server[0] droppedJobsQueue 133
scalar FogNoLB.fog[91].server[0] droppedJobsTimout 25283
scalar FogNoLB.fog[91].server[0] droppedJobsSLA 0
scalar FogNoLB.fog[91].server[0] droppedJobsTotal 25416
scalar FogNoLB.fog[92].dispatcher localJobs 582326
scalar FogNoLB.fog[92].dispatcher remoteJobs 0
scalar FogNoLB.fog[92].dispatcher probeQueries 0
scalar FogNoLB.fog[92].dispatcher probeAnswers 0
scalar FogNoLB.fog[92].dispatcher droppedJobsSLA 0
scalar FogNoLB.fog[92].dispatcher jobs_class_1 582326
scalar FogNoLB.fog[92].dispatcher localJobs_class_1 582326
scalar FogNoLB.fog[92].server[0] rho 0.88906764984131
scalar FogNoLB.fog[92].server[0] congestionRatio 0
scalar FogNoLB.fog[92].server[0] totalJobs 582326
scalar FogNoLB.fog[92].server[0] droppedJobsQueue 125
scalar FogNoLB.fog[92].server[0] droppedJobsTimout 24353
scalar FogNoLB.fog[92].server[0] droppedJobsSLA 0
scalar FogNoLB.fog[92].server[0] droppedJobsTotal 24478
scalar FogNoLB.fog[93].dispatcher localJobs 581505
scalar FogNoLB.fog[93].dispatcher remoteJobs 0
scalar FogNoLB.fog[93].dispatcher probeQueries 0
scalar FogNoLB.fog[93].dispatcher probeAnswers 0
scalar FogNoLB.fog[93].dispatcher droppedJobsSLA 0
scalar FogNoLB.fog[93].dispatcher jobs_class_1 581505
scalar FogNoLB.fog[93].dispatcher localJobs_class_1 581505
scalar FogNoLB.fog[93].server[0] rho 0.88760840892792
scalar FogNoLB.fog[93].server[0] congestionRatio 0
scalar FogNoLB.fog[93].server[0] totalJobs 581505
scalar FogNoLB.fog[93].server[0] droppedJobsQueue 158
scalar FogNoLB.fog[93].server[0] droppedJobsTimout 24497
scalar FogNoLB.fog[93].server[0] droppedJobsSLA 0
scalar FogNoLB.fog[93].server[0] droppedJobsTotal 24655
scalar FogNoLB.fog[94].dispatcher localJobs 581867
scalar FogNoLB.fog[94].dispatcher remoteJobs 0
scalar FogNoLB.fog[94].dispatcher probeQueries 0
scalar FogNoLB.fog[94].dispatcher probeAnswers 0
scalar FogNoLB.fog[94].dispatcher droppedJobsSLA 0
scalar FogNoLB.fog[94].dispatcher jobs_class_1 581867
scalar FogNoLB.fog[94].dispatcher localJobs_class_1 581867
scalar FogNoLB.fog[94].server[0] rho 0.88824814558029
scalar FogNoLB.fog[94].server[0] congestionRatio 0
scalar FogNoLB.fog[94].server[0] totalJobs 581867
scalar FogNoLB.fog[94].server[0] droppedJobsQueue 121
scalar FogNoLB.fog[94].server[0] droppedJobsTimout 24461
scalar FogNoLB.fog[94].server[0] droppedJobsSLA 0
scalar FogNoLB.fog[94].server[0] droppedJobsTotal 24582
scalar FogNoLB.fog[95].dispatcher localJobs 582156
scalar FogNoLB.fog[95].dispatcher remoteJobs 0
scalar FogNoLB.fog[95].dispatcher probeQueries 0
scalar FogNoLB.fog[95].dispatcher probeAnswers 0
scalar FogNoLB.fog[95].dispatcher droppedJobsSLA 0
scalar FogNoLB.fog[95].dispatcher jobs_class_1 582156
scalar FogNoLB.fog[95].dispatcher localJobs_class_1 582156
scalar FogNoLB.fog[95].server[0] rho 0.88832902908325
scalar FogNoLB.fog[95].server[0] congestionRatio 0
scalar FogNoLB.fog[95].server[0] totalJobs 582156
scalar FogNoLB.fog[95].server[0] droppedJobsQueue 142
scalar FogNoLB.fog[95].server[0] droppedJobsTimout 25174
scalar FogNoLB.fog[95].server[0] droppedJobsSLA 0
scalar FogNoLB.fog[95].server[0] droppedJobsTotal 25316
scalar FogNoLB.fog[96].dispatcher localJobs 581033
scalar FogNoLB.fog[96].dispatcher remoteJobs 0
scalar FogNoLB.fog[96].dispatcher probeQueries 0
scalar FogNoLB.fog[96].dispatcher probeAnswers 0
scalar FogNoLB.fog[96].dispatcher droppedJobsSLA 0
scalar FogNoLB.fog[96].dispatcher jobs_class_1 581033
scalar FogNoLB.fog[96].dispatcher localJobs_class_1 581033
scalar FogNoLB.fog[96].server[0] rho 0.88682663440704
scalar FogNoLB.fog[96].server[0] congestionRatio 0
scalar FogNoLB.fog[96].server[0] totalJobs 581033
scalar FogNoLB.fog[96].server[0] droppedJobsQueue 130
scalar FogNoLB.fog[96].server[0] droppedJobsTimout 24552
scalar FogNoLB.fog[96].server[0] droppedJobsSLA 0
scalar FogNoLB.fog[96].server[0] droppedJobsTotal 24682
scalar FogNoLB.fog[97].dispatcher localJobs 582861
scalar FogNoLB.fog[97].dispatcher remoteJobs 0
scalar FogNoLB.fog[97].dispatcher probeQueries 0
scalar FogNoLB.fog[97].dispatcher probeAnswers 0
scalar FogNoLB.fog[97].dispatcher droppedJobsSLA 0
scalar FogNoLB.fog[97].dispatcher jobs_class_1 582861
scalar FogNoLB.fog[97].dispatcher localJobs_class_1 582861
scalar FogNoLB.fog[97].server[0] rho 0.88903135061264
scalar FogNoLB.fog[97].server[0] congestionRatio 0
scalar FogNoLB.fog[97].server[0] totalJobs 582861
scalar FogNoLB.fog[97].server[0] droppedJobsQueue 133
scalar FogNoLB.fog[97].server[0] droppedJobsTimout 26289
scalar FogNoLB.fog[97].server[0] droppedJobsSLA 0
scalar FogNoLB.fog[97].server[0] droppedJobsTotal 26422
scalar FogNoLB.fog[98].dispatcher localJobs 580733
scalar FogNoLB.fog[98].dispatcher remoteJobs 0
scalar FogNoLB.fog[98].dispatcher probeQueries 0
scalar FogNoLB.fog[98].dispatcher probeAnswers 0
scalar FogNoLB.fog[98].dispatcher droppedJobsSLA 0
scalar FogNoLB.fog[98].dispatcher jobs_class_1 580733
scalar FogNoLB.fog[98].dispatcher localJobs_class_1 580733
scalar FogNoLB.fog[98].server[0] rho 0.88615095615387
scalar FogNoLB.fog[98].server[0] congestionRatio 0
scalar FogNoLB.fog[98].server[0] totalJobs 580733
scalar FogNoLB.fog[98].server[0] droppedJobsQueue 183
scalar FogNoLB.fog[98].server[0] droppedJobsTimout 25102
scalar FogNoLB.fog[98].server[0] droppedJobsSLA 0
scalar FogNoLB.fog[98].server[0] droppedJobsTotal 25285
scalar FogNoLB.fog[99].dispatcher localJobs 581874
scalar FogNoLB.fog[99].dispatcher remoteJobs 0
scalar FogNoLB.fog[99].dispatcher probeQueries 0
scalar FogNoLB.fog[99].dispatcher probeAnswers 0
scalar FogNoLB.fog[99].dispatcher droppedJobsSLA 0
scalar FogNoLB.fog[99].dispatcher jobs_class_1 581874
scalar FogNoLB.fog[99].dispatcher localJobs_class_1 581874
scalar FogNoLB.fog[99].server[0] rho 0.88821256160736
scalar FogNoLB.fog[99].server[0] congestionRatio 0
scalar FogNoLB.fog[99].server[0] totalJobs 581874
scalar FogNoLB.fog[99].server[0] droppedJobsQueue 140
scalar FogNoLB.fog[99].server[0] droppedJobsTimout 24617
scalar FogNoLB.fog[99].server[0] droppedJobsSLA 0
scalar FogNoLB.fog[99].server[0] droppedJobsTotal 24757
scalar FogNoLB.sink avg_responseTime_1 0.06551222932325
scalar FogNoLB.sink p90_responseTime_1 0.014730680087
scalar FogNoLB.sink med_responseTime_1 0.014730680087
scalar FogNoLB.sink avg_delayTime_1 0
scalar FogNoLB.sink p90_delayTime_1 0
scalar FogNoLB.sink med_delayTime_1 0
scalar FogNoLB.sink avg_queuingTime_1 0.04881260665681
scalar FogNoLB.sink p90_queuingTime_1 0
scalar FogNoLB.sink med_queuingTime_1 0
scalar FogNoLB.sink avg_serviceTime_1 0.016699622666447
scalar FogNoLB.sink p90_serviceTime_1 0.01471428783
scalar FogNoLB.sink med_serviceTime_1 0.01471428783
scalar FogNoLB.sink avg_balancerTime_1 0
scalar FogNoLB.sink p90_balancerTime_1 0
scalar FogNoLB.sink med_balancerTime_1 0
scalar FogNoLB.sink avg_balancerCount_1 1
scalar FogNoLB.sink p90_balancerCount_1 1
scalar FogNoLB.sink med_balancerCount_1 1

