version 2
run Fog-mul_001-rho_09-thr_7-3-20190711-21:08:29-57581
attr configname Fog-mul_001-rho_09-thr_7
attr datetime 20190711-21:08:29
attr experiment Fog-mul_001-rho_09-thr_7
attr inifile FogQueueLen.ini
attr iterationvars ""
attr iterationvarsf ""
attr measurement ""
attr network FogNoLB
attr processid 57581
attr repetition 3
attr replication #3
attr resultdir results
attr runnumber 3
attr seedset 3
param FogNoLB.proctimeMul 0.01
param FogNoLB.rho 0.9
param FogNoLB.fog[*].server[*].capacity 7
param FogNoLB.nSources 100
param FogNoLB.rho 0.9
param FogNoLB.proctimeMul 1.0
param FogNoLB.source[*].appId 1
param FogNoLB.fog[*].nServers 1
param FogNoLB.fog[*].dispatcher.fanOut 1
param FogNoLB.fog[*].server[*].timeSlice -1s
param FogNoLB.fog[*].server[*].capacity 5
param FogNoLB.fog[*].server[*].fifo true
param FogNoLB.fog[*].server[*].maxServiceTime -1s

scalar FogNoLB.fog[0].dispatcher localJobs 582747
scalar FogNoLB.fog[0].dispatcher remoteJobs 0
scalar FogNoLB.fog[0].dispatcher probeQueries 0
scalar FogNoLB.fog[0].dispatcher probeAnswers 0
scalar FogNoLB.fog[0].dispatcher droppedJobsSLA 0
scalar FogNoLB.fog[0].dispatcher jobs_class_1 582747
scalar FogNoLB.fog[0].dispatcher localJobs_class_1 582747
scalar FogNoLB.fog[0].server[0] rho 0.87674367427826
scalar FogNoLB.fog[0].server[0] congestionRatio 0
scalar FogNoLB.fog[0].server[0] totalJobs 582747
scalar FogNoLB.fog[0].server[0] droppedJobsQueue 15758
scalar FogNoLB.fog[0].server[0] droppedJobsTimout 0
scalar FogNoLB.fog[0].server[0] droppedJobsSLA 0
scalar FogNoLB.fog[0].server[0] droppedJobsTotal 15758
scalar FogNoLB.fog[1].dispatcher localJobs 581930
scalar FogNoLB.fog[1].dispatcher remoteJobs 0
scalar FogNoLB.fog[1].dispatcher probeQueries 0
scalar FogNoLB.fog[1].dispatcher probeAnswers 0
scalar FogNoLB.fog[1].dispatcher droppedJobsSLA 0
scalar FogNoLB.fog[1].dispatcher jobs_class_1 581930
scalar FogNoLB.fog[1].dispatcher localJobs_class_1 581930
scalar FogNoLB.fog[1].server[0] rho 0.87501746416092
scalar FogNoLB.fog[1].server[0] congestionRatio 0
scalar FogNoLB.fog[1].server[0] totalJobs 581930
scalar FogNoLB.fog[1].server[0] droppedJobsQueue 16075
scalar FogNoLB.fog[1].server[0] droppedJobsTimout 0
scalar FogNoLB.fog[1].server[0] droppedJobsSLA 0
scalar FogNoLB.fog[1].server[0] droppedJobsTotal 16075
scalar FogNoLB.fog[2].dispatcher localJobs 582507
scalar FogNoLB.fog[2].dispatcher remoteJobs 0
scalar FogNoLB.fog[2].dispatcher probeQueries 0
scalar FogNoLB.fog[2].dispatcher probeAnswers 0
scalar FogNoLB.fog[2].dispatcher droppedJobsSLA 0
scalar FogNoLB.fog[2].dispatcher jobs_class_1 582507
scalar FogNoLB.fog[2].dispatcher localJobs_class_1 582507
scalar FogNoLB.fog[2].server[0] rho 0.87653142213821
scalar FogNoLB.fog[2].server[0] congestionRatio 0
scalar FogNoLB.fog[2].server[0] totalJobs 582507
scalar FogNoLB.fog[2].server[0] droppedJobsQueue 15650
scalar FogNoLB.fog[2].server[0] droppedJobsTimout 0
scalar FogNoLB.fog[2].server[0] droppedJobsSLA 0
scalar FogNoLB.fog[2].server[0] droppedJobsTotal 15650
scalar FogNoLB.fog[3].dispatcher localJobs 581878
scalar FogNoLB.fog[3].dispatcher remoteJobs 0
scalar FogNoLB.fog[3].dispatcher probeQueries 0
scalar FogNoLB.fog[3].dispatcher probeAnswers 0
scalar FogNoLB.fog[3].dispatcher droppedJobsSLA 0
scalar FogNoLB.fog[3].dispatcher jobs_class_1 581878
scalar FogNoLB.fog[3].dispatcher localJobs_class_1 581878
scalar FogNoLB.fog[3].server[0] rho 0.87517702579498
scalar FogNoLB.fog[3].server[0] congestionRatio 0
scalar FogNoLB.fog[3].server[0] totalJobs 581878
scalar FogNoLB.fog[3].server[0] droppedJobsQueue 15903
scalar FogNoLB.fog[3].server[0] droppedJobsTimout 0
scalar FogNoLB.fog[3].server[0] droppedJobsSLA 0
scalar FogNoLB.fog[3].server[0] droppedJobsTotal 15903
scalar FogNoLB.fog[4].dispatcher localJobs 581489
scalar FogNoLB.fog[4].dispatcher remoteJobs 0
scalar FogNoLB.fog[4].dispatcher probeQueries 0
scalar FogNoLB.fog[4].dispatcher probeAnswers 0
scalar FogNoLB.fog[4].dispatcher droppedJobsSLA 0
scalar FogNoLB.fog[4].dispatcher jobs_class_1 581489
scalar FogNoLB.fog[4].dispatcher localJobs_class_1 581489
scalar FogNoLB.fog[4].server[0] rho 0.87492126226425
scalar FogNoLB.fog[4].server[0] congestionRatio 0
scalar FogNoLB.fog[4].server[0] totalJobs 581489
scalar FogNoLB.fog[4].server[0] droppedJobsQueue 15661
scalar FogNoLB.fog[4].server[0] droppedJobsTimout 0
scalar FogNoLB.fog[4].server[0] droppedJobsSLA 0
scalar FogNoLB.fog[4].server[0] droppedJobsTotal 15661
scalar FogNoLB.fog[5].dispatcher localJobs 582276
scalar FogNoLB.fog[5].dispatcher remoteJobs 0
scalar FogNoLB.fog[5].dispatcher probeQueries 0
scalar FogNoLB.fog[5].dispatcher probeAnswers 0
scalar FogNoLB.fog[5].dispatcher droppedJobsSLA 0
scalar FogNoLB.fog[5].dispatcher jobs_class_1 582276
scalar FogNoLB.fog[5].dispatcher localJobs_class_1 582276
scalar FogNoLB.fog[5].server[0] rho 0.87597531080246
scalar FogNoLB.fog[5].server[0] congestionRatio 0
scalar FogNoLB.fog[5].server[0] totalJobs 582276
scalar FogNoLB.fog[5].server[0] droppedJobsQueue 15772
scalar FogNoLB.fog[5].server[0] droppedJobsTimout 0
scalar FogNoLB.fog[5].server[0] droppedJobsSLA 0
scalar FogNoLB.fog[5].server[0] droppedJobsTotal 15772
scalar FogNoLB.fog[6].dispatcher localJobs 581052
scalar FogNoLB.fog[6].dispatcher remoteJobs 0
scalar FogNoLB.fog[6].dispatcher probeQueries 0
scalar FogNoLB.fog[6].dispatcher probeAnswers 0
scalar FogNoLB.fog[6].dispatcher droppedJobsSLA 0
scalar FogNoLB.fog[6].dispatcher jobs_class_1 581052
scalar FogNoLB.fog[6].dispatcher localJobs_class_1 581052
scalar FogNoLB.fog[6].server[0] rho 0.87364459037781
scalar FogNoLB.fog[6].server[0] congestionRatio 0
scalar FogNoLB.fog[6].server[0] totalJobs 581052
scalar FogNoLB.fog[6].server[0] droppedJobsQueue 16038
scalar FogNoLB.fog[6].server[0] droppedJobsTimout 0
scalar FogNoLB.fog[6].server[0] droppedJobsSLA 0
scalar FogNoLB.fog[6].server[0] droppedJobsTotal 16038
scalar FogNoLB.fog[7].dispatcher localJobs 580965
scalar FogNoLB.fog[7].dispatcher remoteJobs 0
scalar FogNoLB.fog[7].dispatcher probeQueries 0
scalar FogNoLB.fog[7].dispatcher probeAnswers 0
scalar FogNoLB.fog[7].dispatcher droppedJobsSLA 0
scalar FogNoLB.fog[7].dispatcher jobs_class_1 580965
scalar FogNoLB.fog[7].dispatcher localJobs_class_1 580965
scalar FogNoLB.fog[7].server[0] rho 0.87437564134598
scalar FogNoLB.fog[7].server[0] congestionRatio 0
scalar FogNoLB.fog[7].server[0] totalJobs 580965
scalar FogNoLB.fog[7].server[0] droppedJobsQueue 15503
scalar FogNoLB.fog[7].server[0] droppedJobsTimout 0
scalar FogNoLB.fog[7].server[0] droppedJobsSLA 0
scalar FogNoLB.fog[7].server[0] droppedJobsTotal 15503
scalar FogNoLB.fog[8].dispatcher localJobs 582269
scalar FogNoLB.fog[8].dispatcher remoteJobs 0
scalar FogNoLB.fog[8].dispatcher probeQueries 0
scalar FogNoLB.fog[8].dispatcher probeAnswers 0
scalar FogNoLB.fog[8].dispatcher droppedJobsSLA 0
scalar FogNoLB.fog[8].dispatcher jobs_class_1 582269
scalar FogNoLB.fog[8].dispatcher localJobs_class_1 582269
scalar FogNoLB.fog[8].server[0] rho 0.87582558393478
scalar FogNoLB.fog[8].server[0] congestionRatio 0
scalar FogNoLB.fog[8].server[0] totalJobs 582269
scalar FogNoLB.fog[8].server[0] droppedJobsQueue 15848
scalar FogNoLB.fog[8].server[0] droppedJobsTimout 0
scalar FogNoLB.fog[8].server[0] droppedJobsSLA 0
scalar FogNoLB.fog[8].server[0] droppedJobsTotal 15848
scalar FogNoLB.fog[9].dispatcher localJobs 582013
scalar FogNoLB.fog[9].dispatcher remoteJobs 0
scalar FogNoLB.fog[9].dispatcher probeQueries 0
scalar FogNoLB.fog[9].dispatcher probeAnswers 0
scalar FogNoLB.fog[9].dispatcher droppedJobsSLA 0
scalar FogNoLB.fog[9].dispatcher jobs_class_1 582013
scalar FogNoLB.fog[9].dispatcher localJobs_class_1 582013
scalar FogNoLB.fog[9].server[0] rho 0.87479662895203
scalar FogNoLB.fog[9].server[0] congestionRatio 0
scalar FogNoLB.fog[9].server[0] totalJobs 582013
scalar FogNoLB.fog[9].server[0] droppedJobsQueue 16274
scalar FogNoLB.fog[9].server[0] droppedJobsTimout 0
scalar FogNoLB.fog[9].server[0] droppedJobsSLA 0
scalar FogNoLB.fog[9].server[0] droppedJobsTotal 16274
scalar FogNoLB.fog[10].dispatcher localJobs 582566
scalar FogNoLB.fog[10].dispatcher remoteJobs 0
scalar FogNoLB.fog[10].dispatcher probeQueries 0
scalar FogNoLB.fog[10].dispatcher probeAnswers 0
scalar FogNoLB.fog[10].dispatcher droppedJobsSLA 0
scalar FogNoLB.fog[10].dispatcher jobs_class_1 582566
scalar FogNoLB.fog[10].dispatcher localJobs_class_1 582566
scalar FogNoLB.fog[10].server[0] rho 0.87581223249435
scalar FogNoLB.fog[10].server[0] congestionRatio 0
scalar FogNoLB.fog[10].server[0] totalJobs 582566
scalar FogNoLB.fog[10].server[0] droppedJobsQueue 16132
scalar FogNoLB.fog[10].server[0] droppedJobsTimout 0
scalar FogNoLB.fog[10].server[0] droppedJobsSLA 0
scalar FogNoLB.fog[10].server[0] droppedJobsTotal 16132
scalar FogNoLB.fog[11].dispatcher localJobs 581610
scalar FogNoLB.fog[11].dispatcher remoteJobs 0
scalar FogNoLB.fog[11].dispatcher probeQueries 0
scalar FogNoLB.fog[11].dispatcher probeAnswers 0
scalar FogNoLB.fog[11].dispatcher droppedJobsSLA 0
scalar FogNoLB.fog[11].dispatcher jobs_class_1 581610
scalar FogNoLB.fog[11].dispatcher localJobs_class_1 581610
scalar FogNoLB.fog[11].server[0] rho 0.87472265958786
scalar FogNoLB.fog[11].server[0] congestionRatio 0
scalar FogNoLB.fog[11].server[0] totalJobs 581610
scalar FogNoLB.fog[11].server[0] droppedJobsQueue 15903
scalar FogNoLB.fog[11].server[0] droppedJobsTimout 0
scalar FogNoLB.fog[11].server[0] droppedJobsSLA 0
scalar FogNoLB.fog[11].server[0] droppedJobsTotal 15903
scalar FogNoLB.fog[12].dispatcher localJobs 581494
scalar FogNoLB.fog[12].dispatcher remoteJobs 0
scalar FogNoLB.fog[12].dispatcher probeQueries 0
scalar FogNoLB.fog[12].dispatcher probeAnswers 0
scalar FogNoLB.fog[12].dispatcher droppedJobsSLA 0
scalar FogNoLB.fog[12].dispatcher jobs_class_1 581494
scalar FogNoLB.fog[12].dispatcher localJobs_class_1 581494
scalar FogNoLB.fog[12].server[0] rho 0.87492769956589
scalar FogNoLB.fog[12].server[0] congestionRatio 0
scalar FogNoLB.fog[12].server[0] totalJobs 581494
scalar FogNoLB.fog[12].server[0] droppedJobsQueue 15697
scalar FogNoLB.fog[12].server[0] droppedJobsTimout 0
scalar FogNoLB.fog[12].server[0] droppedJobsSLA 0
scalar FogNoLB.fog[12].server[0] droppedJobsTotal 15697
scalar FogNoLB.fog[13].dispatcher localJobs 580957
scalar FogNoLB.fog[13].dispatcher remoteJobs 0
scalar FogNoLB.fog[13].dispatcher probeQueries 0
scalar FogNoLB.fog[13].dispatcher probeAnswers 0
scalar FogNoLB.fog[13].dispatcher droppedJobsSLA 0
scalar FogNoLB.fog[13].dispatcher jobs_class_1 580957
scalar FogNoLB.fog[13].dispatcher localJobs_class_1 580957
scalar FogNoLB.fog[13].server[0] rho 0.87428933382034
scalar FogNoLB.fog[13].server[0] congestionRatio 0
scalar FogNoLB.fog[13].server[0] totalJobs 580957
scalar FogNoLB.fog[13].server[0] droppedJobsQueue 15545
scalar FogNoLB.fog[13].server[0] droppedJobsTimout 0
scalar FogNoLB.fog[13].server[0] droppedJobsSLA 0
scalar FogNoLB.fog[13].server[0] droppedJobsTotal 15545
scalar FogNoLB.fog[14].dispatcher localJobs 582253
scalar FogNoLB.fog[14].dispatcher remoteJobs 0
scalar FogNoLB.fog[14].dispatcher probeQueries 0
scalar FogNoLB.fog[14].dispatcher probeAnswers 0
scalar FogNoLB.fog[14].dispatcher droppedJobsSLA 0
scalar FogNoLB.fog[14].dispatcher jobs_class_1 582253
scalar FogNoLB.fog[14].dispatcher localJobs_class_1 582253
scalar FogNoLB.fog[14].server[0] rho 0.87558990716934
scalar FogNoLB.fog[14].server[0] congestionRatio 0
scalar FogNoLB.fog[14].server[0] totalJobs 582253
scalar FogNoLB.fog[14].server[0] droppedJobsQueue 15979
scalar FogNoLB.fog[14].server[0] droppedJobsTimout 0
scalar FogNoLB.fog[14].server[0] droppedJobsSLA 0
scalar FogNoLB.fog[14].server[0] droppedJobsTotal 15979
scalar FogNoLB.fog[15].dispatcher localJobs 581473
scalar FogNoLB.fog[15].dispatcher remoteJobs 0
scalar FogNoLB.fog[15].dispatcher probeQueries 0
scalar FogNoLB.fog[15].dispatcher probeAnswers 0
scalar FogNoLB.fog[15].dispatcher droppedJobsSLA 0
scalar FogNoLB.fog[15].dispatcher jobs_class_1 581473
scalar FogNoLB.fog[15].dispatcher localJobs_class_1 581473
scalar FogNoLB.fog[15].server[0] rho 0.87468546628952
scalar FogNoLB.fog[15].server[0] congestionRatio 0
scalar FogNoLB.fog[15].server[0] totalJobs 581473
scalar FogNoLB.fog[15].server[0] droppedJobsQueue 15777
scalar FogNoLB.fog[15].server[0] droppedJobsTimout 0
scalar FogNoLB.fog[15].server[0] droppedJobsSLA 0
scalar FogNoLB.fog[15].server[0] droppedJobsTotal 15777
scalar FogNoLB.fog[16].dispatcher localJobs 581548
scalar FogNoLB.fog[16].dispatcher remoteJobs 0
scalar FogNoLB.fog[16].dispatcher probeQueries 0
scalar FogNoLB.fog[16].dispatcher probeAnswers 0
scalar FogNoLB.fog[16].dispatcher droppedJobsSLA 0
scalar FogNoLB.fog[16].dispatcher jobs_class_1 581548
scalar FogNoLB.fog[16].dispatcher localJobs_class_1 581548
scalar FogNoLB.fog[16].server[0] rho 0.87497532367706
scalar FogNoLB.fog[16].server[0] congestionRatio 0
scalar FogNoLB.fog[16].server[0] totalJobs 581548
scalar FogNoLB.fog[16].server[0] droppedJobsQueue 15701
scalar FogNoLB.fog[16].server[0] droppedJobsTimout 0
scalar FogNoLB.fog[16].server[0] droppedJobsSLA 0
scalar FogNoLB.fog[16].server[0] droppedJobsTotal 15701
scalar FogNoLB.fog[17].dispatcher localJobs 582625
scalar FogNoLB.fog[17].dispatcher remoteJobs 0
scalar FogNoLB.fog[17].dispatcher probeQueries 0
scalar FogNoLB.fog[17].dispatcher probeAnswers 0
scalar FogNoLB.fog[17].dispatcher droppedJobsSLA 0
scalar FogNoLB.fog[17].dispatcher jobs_class_1 582625
scalar FogNoLB.fog[17].dispatcher localJobs_class_1 582625
scalar FogNoLB.fog[17].server[0] rho 0.87629598379135
scalar FogNoLB.fog[17].server[0] congestionRatio 0
scalar FogNoLB.fog[17].server[0] totalJobs 582625
scalar FogNoLB.fog[17].server[0] droppedJobsQueue 15917
scalar FogNoLB.fog[17].server[0] droppedJobsTimout 0
scalar FogNoLB.fog[17].server[0] droppedJobsSLA 0
scalar FogNoLB.fog[17].server[0] droppedJobsTotal 15917
scalar FogNoLB.fog[18].dispatcher localJobs 583187
scalar FogNoLB.fog[18].dispatcher remoteJobs 0
scalar FogNoLB.fog[18].dispatcher probeQueries 0
scalar FogNoLB.fog[18].dispatcher probeAnswers 0
scalar FogNoLB.fog[18].dispatcher droppedJobsSLA 0
scalar FogNoLB.fog[18].dispatcher jobs_class_1 583187
scalar FogNoLB.fog[18].dispatcher localJobs_class_1 583187
scalar FogNoLB.fog[18].server[0] rho 0.87705659866333
scalar FogNoLB.fog[18].server[0] congestionRatio 0
scalar FogNoLB.fog[18].server[0] totalJobs 583187
scalar FogNoLB.fog[18].server[0] droppedJobsQueue 15992
scalar FogNoLB.fog[18].server[0] droppedJobsTimout 0
scalar FogNoLB.fog[18].server[0] droppedJobsSLA 0
scalar FogNoLB.fog[18].server[0] droppedJobsTotal 15992
scalar FogNoLB.fog[19].dispatcher localJobs 581793
scalar FogNoLB.fog[19].dispatcher remoteJobs 0
scalar FogNoLB.fog[19].dispatcher probeQueries 0
scalar FogNoLB.fog[19].dispatcher probeAnswers 0
scalar FogNoLB.fog[19].dispatcher droppedJobsSLA 0
scalar FogNoLB.fog[19].dispatcher jobs_class_1 581793
scalar FogNoLB.fog[19].dispatcher localJobs_class_1 581793
scalar FogNoLB.fog[19].server[0] rho 0.87415617704391
scalar FogNoLB.fog[19].server[0] congestionRatio 0
scalar FogNoLB.fog[19].server[0] totalJobs 581793
scalar FogNoLB.fog[19].server[0] droppedJobsQueue 16454
scalar FogNoLB.fog[19].server[0] droppedJobsTimout 0
scalar FogNoLB.fog[19].server[0] droppedJobsSLA 0
scalar FogNoLB.fog[19].server[0] droppedJobsTotal 16454
scalar FogNoLB.fog[20].dispatcher localJobs 581957
scalar FogNoLB.fog[20].dispatcher remoteJobs 0
scalar FogNoLB.fog[20].dispatcher probeQueries 0
scalar FogNoLB.fog[20].dispatcher probeAnswers 0
scalar FogNoLB.fog[20].dispatcher droppedJobsSLA 0
scalar FogNoLB.fog[20].dispatcher jobs_class_1 581957
scalar FogNoLB.fog[20].dispatcher localJobs_class_1 581957
scalar FogNoLB.fog[20].server[0] rho 0.87543988227844
scalar FogNoLB.fog[20].server[0] congestionRatio 0
scalar FogNoLB.fog[20].server[0] totalJobs 581957
scalar FogNoLB.fog[20].server[0] droppedJobsQueue 15793
scalar FogNoLB.fog[20].server[0] droppedJobsTimout 0
scalar FogNoLB.fog[20].server[0] droppedJobsSLA 0
scalar FogNoLB.fog[20].server[0] droppedJobsTotal 15793
scalar FogNoLB.fog[21].dispatcher localJobs 581321
scalar FogNoLB.fog[21].dispatcher remoteJobs 0
scalar FogNoLB.fog[21].dispatcher probeQueries 0
scalar FogNoLB.fog[21].dispatcher probeAnswers 0
scalar FogNoLB.fog[21].dispatcher droppedJobsSLA 0
scalar FogNoLB.fog[21].dispatcher jobs_class_1 581321
scalar FogNoLB.fog[21].dispatcher localJobs_class_1 581321
scalar FogNoLB.fog[21].server[0] rho 0.8746709227562
scalar FogNoLB.fog[21].server[0] congestionRatio 0
scalar FogNoLB.fog[21].server[0] totalJobs 581321
scalar FogNoLB.fog[21].server[0] droppedJobsQueue 15661
scalar FogNoLB.fog[21].server[0] droppedJobsTimout 0
scalar FogNoLB.fog[21].server[0] droppedJobsSLA 0
scalar FogNoLB.fog[21].server[0] droppedJobsTotal 15661
scalar FogNoLB.fog[22].dispatcher localJobs 583722
scalar FogNoLB.fog[22].dispatcher remoteJobs 0
scalar FogNoLB.fog[22].dispatcher probeQueries 0
scalar FogNoLB.fog[22].dispatcher probeAnswers 0
scalar FogNoLB.fog[22].dispatcher droppedJobsSLA 0
scalar FogNoLB.fog[22].dispatcher jobs_class_1 583722
scalar FogNoLB.fog[22].dispatcher localJobs_class_1 583722
scalar FogNoLB.fog[22].server[0] rho 0.87729567289352
scalar FogNoLB.fog[22].server[0] congestionRatio 0
scalar FogNoLB.fog[22].server[0] totalJobs 583722
scalar FogNoLB.fog[22].server[0] droppedJobsQueue 16363
scalar FogNoLB.fog[22].server[0] droppedJobsTimout 0
scalar FogNoLB.fog[22].server[0] droppedJobsSLA 0
scalar FogNoLB.fog[22].server[0] droppedJobsTotal 16363
scalar FogNoLB.fog[23].dispatcher localJobs 582291
scalar FogNoLB.fog[23].dispatcher remoteJobs 0
scalar FogNoLB.fog[23].dispatcher probeQueries 0
scalar FogNoLB.fog[23].dispatcher probeAnswers 0
scalar FogNoLB.fog[23].dispatcher droppedJobsSLA 0
scalar FogNoLB.fog[23].dispatcher jobs_class_1 582291
scalar FogNoLB.fog[23].dispatcher localJobs_class_1 582291
scalar FogNoLB.fog[23].server[0] rho 0.87523883581161
scalar FogNoLB.fog[23].server[0] congestionRatio 0
scalar FogNoLB.fog[23].server[0] totalJobs 582291
scalar FogNoLB.fog[23].server[0] droppedJobsQueue 16273
scalar FogNoLB.fog[23].server[0] droppedJobsTimout 0
scalar FogNoLB.fog[23].server[0] droppedJobsSLA 0
scalar FogNoLB.fog[23].server[0] droppedJobsTotal 16273
scalar FogNoLB.fog[24].dispatcher localJobs 581441
scalar FogNoLB.fog[24].dispatcher remoteJobs 0
scalar FogNoLB.fog[24].dispatcher probeQueries 0
scalar FogNoLB.fog[24].dispatcher probeAnswers 0
scalar FogNoLB.fog[24].dispatcher droppedJobsSLA 0
scalar FogNoLB.fog[24].dispatcher jobs_class_1 581441
scalar FogNoLB.fog[24].dispatcher localJobs_class_1 581441
scalar FogNoLB.fog[24].server[0] rho 0.87510347366333
scalar FogNoLB.fog[24].server[0] congestionRatio 0
scalar FogNoLB.fog[24].server[0] totalJobs 581441
scalar FogNoLB.fog[24].server[0] droppedJobsQueue 15491
scalar FogNoLB.fog[24].server[0] droppedJobsTimout 0
scalar FogNoLB.fog[24].server[0] droppedJobsSLA 0
scalar FogNoLB.fog[24].server[0] droppedJobsTotal 15491
scalar FogNoLB.fog[25].dispatcher localJobs 581342
scalar FogNoLB.fog[25].dispatcher remoteJobs 0
scalar FogNoLB.fog[25].dispatcher probeQueries 0
scalar FogNoLB.fog[25].dispatcher probeAnswers 0
scalar FogNoLB.fog[25].dispatcher droppedJobsSLA 0
scalar FogNoLB.fog[25].dispatcher jobs_class_1 581342
scalar FogNoLB.fog[25].dispatcher localJobs_class_1 581342
scalar FogNoLB.fog[25].server[0] rho 0.87457293272018
scalar FogNoLB.fog[25].server[0] congestionRatio 0
scalar FogNoLB.fog[25].server[0] totalJobs 581342
scalar FogNoLB.fog[25].server[0] droppedJobsQueue 15752
scalar FogNoLB.fog[25].server[0] droppedJobsTimout 0
scalar FogNoLB.fog[25].server[0] droppedJobsSLA 0
scalar FogNoLB.fog[25].server[0] droppedJobsTotal 15752
scalar FogNoLB.fog[26].dispatcher localJobs 582325
scalar FogNoLB.fog[26].dispatcher remoteJobs 0
scalar FogNoLB.fog[26].dispatcher probeQueries 0
scalar FogNoLB.fog[26].dispatcher probeAnswers 0
scalar FogNoLB.fog[26].dispatcher droppedJobsSLA 0
scalar FogNoLB.fog[26].dispatcher jobs_class_1 582325
scalar FogNoLB.fog[26].dispatcher localJobs_class_1 582325
scalar FogNoLB.fog[26].server[0] rho 0.87574428319931
scalar FogNoLB.fog[26].server[0] congestionRatio 0
scalar FogNoLB.fog[26].server[0] totalJobs 582325
scalar FogNoLB.fog[26].server[0] droppedJobsQueue 15945
scalar FogNoLB.fog[26].server[0] droppedJobsTimout 0
scalar FogNoLB.fog[26].server[0] droppedJobsSLA 0
scalar FogNoLB.fog[26].server[0] droppedJobsTotal 15945
scalar FogNoLB.fog[27].dispatcher localJobs 583271
scalar FogNoLB.fog[27].dispatcher remoteJobs 0
scalar FogNoLB.fog[27].dispatcher probeQueries 0
scalar FogNoLB.fog[27].dispatcher probeAnswers 0
scalar FogNoLB.fog[27].dispatcher droppedJobsSLA 0
scalar FogNoLB.fog[27].dispatcher jobs_class_1 583271
scalar FogNoLB.fog[27].dispatcher localJobs_class_1 583271
scalar FogNoLB.fog[27].server[0] rho 0.87674045562744
scalar FogNoLB.fog[27].server[0] congestionRatio 0
scalar FogNoLB.fog[27].server[0] totalJobs 583271
scalar FogNoLB.fog[27].server[0] droppedJobsQueue 16247
scalar FogNoLB.fog[27].server[0] droppedJobsTimout 0
scalar FogNoLB.fog[27].server[0] droppedJobsSLA 0
scalar FogNoLB.fog[27].server[0] droppedJobsTotal 16247
scalar FogNoLB.fog[28].dispatcher localJobs 583736
scalar FogNoLB.fog[28].dispatcher remoteJobs 0
scalar FogNoLB.fog[28].dispatcher probeQueries 0
scalar FogNoLB.fog[28].dispatcher probeAnswers 0
scalar FogNoLB.fog[28].dispatcher droppedJobsSLA 0
scalar FogNoLB.fog[28].dispatcher jobs_class_1 583736
scalar FogNoLB.fog[28].dispatcher localJobs_class_1 583736
scalar FogNoLB.fog[28].server[0] rho 0.87702542543411
scalar FogNoLB.fog[28].server[0] congestionRatio 0
scalar FogNoLB.fog[28].server[0] totalJobs 583736
scalar FogNoLB.fog[28].server[0] droppedJobsQueue 16546
scalar FogNoLB.fog[28].server[0] droppedJobsTimout 0
scalar FogNoLB.fog[28].server[0] droppedJobsSLA 0
scalar FogNoLB.fog[28].server[0] droppedJobsTotal 16546
scalar FogNoLB.fog[29].dispatcher localJobs 582316
scalar FogNoLB.fog[29].dispatcher remoteJobs 0
scalar FogNoLB.fog[29].dispatcher probeQueries 0
scalar FogNoLB.fog[29].dispatcher probeAnswers 0
scalar FogNoLB.fog[29].dispatcher droppedJobsSLA 0
scalar FogNoLB.fog[29].dispatcher jobs_class_1 582316
scalar FogNoLB.fog[29].dispatcher localJobs_class_1 582316
scalar FogNoLB.fog[29].server[0] rho 0.87608832120895
scalar FogNoLB.fog[29].server[0] congestionRatio 0
scalar FogNoLB.fog[29].server[0] totalJobs 582316
scalar FogNoLB.fog[29].server[0] droppedJobsQueue 15729
scalar FogNoLB.fog[29].server[0] droppedJobsTimout 0
scalar FogNoLB.fog[29].server[0] droppedJobsSLA 0
scalar FogNoLB.fog[29].server[0] droppedJobsTotal 15729
scalar FogNoLB.fog[30].dispatcher localJobs 581089
scalar FogNoLB.fog[30].dispatcher remoteJobs 0
scalar FogNoLB.fog[30].dispatcher probeQueries 0
scalar FogNoLB.fog[30].dispatcher probeAnswers 0
scalar FogNoLB.fog[30].dispatcher droppedJobsSLA 0
scalar FogNoLB.fog[30].dispatcher jobs_class_1 581089
scalar FogNoLB.fog[30].dispatcher localJobs_class_1 581089
scalar FogNoLB.fog[30].server[0] rho 0.87412303686142
scalar FogNoLB.fog[30].server[0] congestionRatio 0
scalar FogNoLB.fog[30].server[0] totalJobs 581089
scalar FogNoLB.fog[30].server[0] droppedJobsQueue 15773
scalar FogNoLB.fog[30].server[0] droppedJobsTimout 0
scalar FogNoLB.fog[30].server[0] droppedJobsSLA 0
scalar FogNoLB.fog[30].server[0] droppedJobsTotal 15773
scalar FogNoLB.fog[31].dispatcher localJobs 582302
scalar FogNoLB.fog[31].dispatcher remoteJobs 0
scalar FogNoLB.fog[31].dispatcher probeQueries 0
scalar FogNoLB.fog[31].dispatcher probeAnswers 0
scalar FogNoLB.fog[31].dispatcher droppedJobsSLA 0
scalar FogNoLB.fog[31].dispatcher jobs_class_1 582302
scalar FogNoLB.fog[31].dispatcher localJobs_class_1 582302
scalar FogNoLB.fog[31].server[0] rho 0.87558460235596
scalar FogNoLB.fog[31].server[0] congestionRatio 0
scalar FogNoLB.fog[31].server[0] totalJobs 582302
scalar FogNoLB.fog[31].server[0] droppedJobsQueue 16076
scalar FogNoLB.fog[31].server[0] droppedJobsTimout 0
scalar FogNoLB.fog[31].server[0] droppedJobsSLA 0
scalar FogNoLB.fog[31].server[0] droppedJobsTotal 16076
scalar FogNoLB.fog[32].dispatcher localJobs 581511
scalar FogNoLB.fog[32].dispatcher remoteJobs 0
scalar FogNoLB.fog[32].dispatcher probeQueries 0
scalar FogNoLB.fog[32].dispatcher probeAnswers 0
scalar FogNoLB.fog[32].dispatcher droppedJobsSLA 0
scalar FogNoLB.fog[32].dispatcher jobs_class_1 581511
scalar FogNoLB.fog[32].dispatcher localJobs_class_1 581511
scalar FogNoLB.fog[32].server[0] rho 0.87449109554291
scalar FogNoLB.fog[32].server[0] congestionRatio 0
scalar FogNoLB.fog[32].server[0] totalJobs 581511
scalar FogNoLB.fog[32].server[0] droppedJobsQueue 15961
scalar FogNoLB.fog[32].server[0] droppedJobsTimout 0
scalar FogNoLB.fog[32].server[0] droppedJobsSLA 0
scalar FogNoLB.fog[32].server[0] droppedJobsTotal 15961
scalar FogNoLB.fog[33].dispatcher localJobs 581222
scalar FogNoLB.fog[33].dispatcher remoteJobs 0
scalar FogNoLB.fog[33].dispatcher probeQueries 0
scalar FogNoLB.fog[33].dispatcher probeAnswers 0
scalar FogNoLB.fog[33].dispatcher droppedJobsSLA 0
scalar FogNoLB.fog[33].dispatcher jobs_class_1 581222
scalar FogNoLB.fog[33].dispatcher localJobs_class_1 581222
scalar FogNoLB.fog[33].server[0] rho 0.87478739023209
scalar FogNoLB.fog[33].server[0] congestionRatio 0
scalar FogNoLB.fog[33].server[0] totalJobs 581222
scalar FogNoLB.fog[33].server[0] droppedJobsQueue 15484
scalar FogNoLB.fog[33].server[0] droppedJobsTimout 0
scalar FogNoLB.fog[33].server[0] droppedJobsSLA 0
scalar FogNoLB.fog[33].server[0] droppedJobsTotal 15484
scalar FogNoLB.fog[34].dispatcher localJobs 582326
scalar FogNoLB.fog[34].dispatcher remoteJobs 0
scalar FogNoLB.fog[34].dispatcher probeQueries 0
scalar FogNoLB.fog[34].dispatcher probeAnswers 0
scalar FogNoLB.fog[34].dispatcher droppedJobsSLA 0
scalar FogNoLB.fog[34].dispatcher jobs_class_1 582326
scalar FogNoLB.fog[34].dispatcher localJobs_class_1 582326
scalar FogNoLB.fog[34].server[0] rho 0.8753622174263
scalar FogNoLB.fog[34].server[0] congestionRatio 0
scalar FogNoLB.fog[34].server[0] totalJobs 582326
scalar FogNoLB.fog[34].server[0] droppedJobsQueue 16219
scalar FogNoLB.fog[34].server[0] droppedJobsTimout 0
scalar FogNoLB.fog[34].server[0] droppedJobsSLA 0
scalar FogNoLB.fog[34].server[0] droppedJobsTotal 16219
scalar FogNoLB.fog[35].dispatcher localJobs 582037
scalar FogNoLB.fog[35].dispatcher remoteJobs 0
scalar FogNoLB.fog[35].dispatcher probeQueries 0
scalar FogNoLB.fog[35].dispatcher probeAnswers 0
scalar FogNoLB.fog[35].dispatcher droppedJobsSLA 0
scalar FogNoLB.fog[35].dispatcher jobs_class_1 582037
scalar FogNoLB.fog[35].dispatcher localJobs_class_1 582037
scalar FogNoLB.fog[35].server[0] rho 0.87533354759216
scalar FogNoLB.fog[35].server[0] congestionRatio 0
scalar FogNoLB.fog[35].server[0] totalJobs 582037
scalar FogNoLB.fog[35].server[0] droppedJobsQueue 15960
scalar FogNoLB.fog[35].server[0] droppedJobsTimout 0
scalar FogNoLB.fog[35].server[0] droppedJobsSLA 0
scalar FogNoLB.fog[35].server[0] droppedJobsTotal 15960
scalar FogNoLB.fog[36].dispatcher localJobs 580507
scalar FogNoLB.fog[36].dispatcher remoteJobs 0
scalar FogNoLB.fog[36].dispatcher probeQueries 0
scalar FogNoLB.fog[36].dispatcher probeAnswers 0
scalar FogNoLB.fog[36].dispatcher droppedJobsSLA 0
scalar FogNoLB.fog[36].dispatcher jobs_class_1 580507
scalar FogNoLB.fog[36].dispatcher localJobs_class_1 580507
scalar FogNoLB.fog[36].server[0] rho 0.87344974279404
scalar FogNoLB.fog[36].server[0] congestionRatio 0
scalar FogNoLB.fog[36].server[0] totalJobs 580507
scalar FogNoLB.fog[36].server[0] droppedJobsQueue 15625
scalar FogNoLB.fog[36].server[0] droppedJobsTimout 0
scalar FogNoLB.fog[36].server[0] droppedJobsSLA 0
scalar FogNoLB.fog[36].server[0] droppedJobsTotal 15625
scalar FogNoLB.fog[37].dispatcher localJobs 580220
scalar FogNoLB.fog[37].dispatcher remoteJobs 0
scalar FogNoLB.fog[37].dispatcher probeQueries 0
scalar FogNoLB.fog[37].dispatcher probeAnswers 0
scalar FogNoLB.fog[37].dispatcher droppedJobsSLA 0
scalar FogNoLB.fog[37].dispatcher jobs_class_1 580220
scalar FogNoLB.fog[37].dispatcher localJobs_class_1 580220
scalar FogNoLB.fog[37].server[0] rho 0.87336659431458
scalar FogNoLB.fog[37].server[0] congestionRatio 0
scalar FogNoLB.fog[37].server[0] totalJobs 580220
scalar FogNoLB.fog[37].server[0] droppedJobsQueue 15424
scalar FogNoLB.fog[37].server[0] droppedJobsTimout 0
scalar FogNoLB.fog[37].server[0] droppedJobsSLA 0
scalar FogNoLB.fog[37].server[0] droppedJobsTotal 15424
scalar FogNoLB.fog[38].dispatcher localJobs 581248
scalar FogNoLB.fog[38].dispatcher remoteJobs 0
scalar FogNoLB.fog[38].dispatcher probeQueries 0
scalar FogNoLB.fog[38].dispatcher probeAnswers 0
scalar FogNoLB.fog[38].dispatcher droppedJobsSLA 0
scalar FogNoLB.fog[38].dispatcher jobs_class_1 581248
scalar FogNoLB.fog[38].dispatcher localJobs_class_1 581248
scalar FogNoLB.fog[38].server[0] rho 0.87460178136826
scalar FogNoLB.fog[38].server[0] congestionRatio 0
scalar FogNoLB.fog[38].server[0] totalJobs 581248
scalar FogNoLB.fog[38].server[0] droppedJobsQueue 15610
scalar FogNoLB.fog[38].server[0] droppedJobsTimout 0
scalar FogNoLB.fog[38].server[0] droppedJobsSLA 0
scalar FogNoLB.fog[38].server[0] droppedJobsTotal 15610
scalar FogNoLB.fog[39].dispatcher localJobs 583031
scalar FogNoLB.fog[39].dispatcher remoteJobs 0
scalar FogNoLB.fog[39].dispatcher probeQueries 0
scalar FogNoLB.fog[39].dispatcher probeAnswers 0
scalar FogNoLB.fog[39].dispatcher droppedJobsSLA 0
scalar FogNoLB.fog[39].dispatcher jobs_class_1 583031
scalar FogNoLB.fog[39].dispatcher localJobs_class_1 583031
scalar FogNoLB.fog[39].server[0] rho 0.8766056895256
scalar FogNoLB.fog[39].server[0] congestionRatio 0
scalar FogNoLB.fog[39].server[0] totalJobs 583031
scalar FogNoLB.fog[39].server[0] droppedJobsQueue 16139
scalar FogNoLB.fog[39].server[0] droppedJobsTimout 0
scalar FogNoLB.fog[39].server[0] droppedJobsSLA 0
scalar FogNoLB.fog[39].server[0] droppedJobsTotal 16139
scalar FogNoLB.fog[40].dispatcher localJobs 581855
scalar FogNoLB.fog[40].dispatcher remoteJobs 0
scalar FogNoLB.fog[40].dispatcher probeQueries 0
scalar FogNoLB.fog[40].dispatcher probeAnswers 0
scalar FogNoLB.fog[40].dispatcher droppedJobsSLA 0
scalar FogNoLB.fog[40].dispatcher jobs_class_1 581855
scalar FogNoLB.fog[40].dispatcher localJobs_class_1 581855
scalar FogNoLB.fog[40].server[0] rho 0.87537533044815
scalar FogNoLB.fog[40].server[0] congestionRatio 0
scalar FogNoLB.fog[40].server[0] totalJobs 581855
scalar FogNoLB.fog[40].server[0] droppedJobsQueue 15741
scalar FogNoLB.fog[40].server[0] droppedJobsTimout 0
scalar FogNoLB.fog[40].server[0] droppedJobsSLA 0
scalar FogNoLB.fog[40].server[0] droppedJobsTotal 15741
scalar FogNoLB.fog[41].dispatcher localJobs 582692
scalar FogNoLB.fog[41].dispatcher remoteJobs 0
scalar FogNoLB.fog[41].dispatcher probeQueries 0
scalar FogNoLB.fog[41].dispatcher probeAnswers 0
scalar FogNoLB.fog[41].dispatcher droppedJobsSLA 0
scalar FogNoLB.fog[41].dispatcher jobs_class_1 582692
scalar FogNoLB.fog[41].dispatcher localJobs_class_1 582692
scalar FogNoLB.fog[41].server[0] rho 0.87625735998154
scalar FogNoLB.fog[41].server[0] congestionRatio 0
scalar FogNoLB.fog[41].server[0] totalJobs 582692
scalar FogNoLB.fog[41].server[0] droppedJobsQueue 16022
scalar FogNoLB.fog[41].server[0] droppedJobsTimout 0
scalar FogNoLB.fog[41].server[0] droppedJobsSLA 0
scalar FogNoLB.fog[41].server[0] droppedJobsTotal 16022
scalar FogNoLB.fog[42].dispatcher localJobs 582171
scalar FogNoLB.fog[42].dispatcher remoteJobs 0
scalar FogNoLB.fog[42].dispatcher probeQueries 0
scalar FogNoLB.fog[42].dispatcher probeAnswers 0
scalar FogNoLB.fog[42].dispatcher droppedJobsSLA 0
scalar FogNoLB.fog[42].dispatcher jobs_class_1 582171
scalar FogNoLB.fog[42].dispatcher localJobs_class_1 582171
scalar FogNoLB.fog[42].server[0] rho 0.8758493065834
scalar FogNoLB.fog[42].server[0] congestionRatio 0
scalar FogNoLB.fog[42].server[0] totalJobs 582171
scalar FogNoLB.fog[42].server[0] droppedJobsQueue 15757
scalar FogNoLB.fog[42].server[0] droppedJobsTimout 0
scalar FogNoLB.fog[42].server[0] droppedJobsSLA 0
scalar FogNoLB.fog[42].server[0] droppedJobsTotal 15757
scalar FogNoLB.fog[43].dispatcher localJobs 582237
scalar FogNoLB.fog[43].dispatcher remoteJobs 0
scalar FogNoLB.fog[43].dispatcher probeQueries 0
scalar FogNoLB.fog[43].dispatcher probeAnswers 0
scalar FogNoLB.fog[43].dispatcher droppedJobsSLA 0
scalar FogNoLB.fog[43].dispatcher jobs_class_1 582237
scalar FogNoLB.fog[43].dispatcher localJobs_class_1 582237
scalar FogNoLB.fog[43].server[0] rho 0.87541830539703
scalar FogNoLB.fog[43].server[0] congestionRatio 0
scalar FogNoLB.fog[43].server[0] totalJobs 582237
scalar FogNoLB.fog[43].server[0] droppedJobsQueue 16065
scalar FogNoLB.fog[43].server[0] droppedJobsTimout 0
scalar FogNoLB.fog[43].server[0] droppedJobsSLA 0
scalar FogNoLB.fog[43].server[0] droppedJobsTotal 16065
scalar FogNoLB.fog[44].dispatcher localJobs 582260
scalar FogNoLB.fog[44].dispatcher remoteJobs 0
scalar FogNoLB.fog[44].dispatcher probeQueries 0
scalar FogNoLB.fog[44].dispatcher probeAnswers 0
scalar FogNoLB.fog[44].dispatcher droppedJobsSLA 0
scalar FogNoLB.fog[44].dispatcher jobs_class_1 582260
scalar FogNoLB.fog[44].dispatcher localJobs_class_1 582260
scalar FogNoLB.fog[44].server[0] rho 0.87579280138016
scalar FogNoLB.fog[44].server[0] congestionRatio 0
scalar FogNoLB.fog[44].server[0] totalJobs 582260
scalar FogNoLB.fog[44].server[0] droppedJobsQueue 15863
scalar FogNoLB.fog[44].server[0] droppedJobsTimout 0
scalar FogNoLB.fog[44].server[0] droppedJobsSLA 0
scalar FogNoLB.fog[44].server[0] droppedJobsTotal 15863
scalar FogNoLB.fog[45].dispatcher localJobs 582482
scalar FogNoLB.fog[45].dispatcher remoteJobs 0
scalar FogNoLB.fog[45].dispatcher probeQueries 0
scalar FogNoLB.fog[45].dispatcher probeAnswers 0
scalar FogNoLB.fog[45].dispatcher droppedJobsSLA 0
scalar FogNoLB.fog[45].dispatcher jobs_class_1 582482
scalar FogNoLB.fog[45].dispatcher localJobs_class_1 582482
scalar FogNoLB.fog[45].server[0] rho 0.87586534023285
scalar FogNoLB.fog[45].server[0] congestionRatio 0
scalar FogNoLB.fog[45].server[0] totalJobs 582482
scalar FogNoLB.fog[45].server[0] droppedJobsQueue 16039
scalar FogNoLB.fog[45].server[0] droppedJobsTimout 0
scalar FogNoLB.fog[45].server[0] droppedJobsSLA 0
scalar FogNoLB.fog[45].server[0] droppedJobsTotal 16039
scalar FogNoLB.fog[46].dispatcher localJobs 581574
scalar FogNoLB.fog[46].dispatcher remoteJobs 0
scalar FogNoLB.fog[46].dispatcher probeQueries 0
scalar FogNoLB.fog[46].dispatcher probeAnswers 0
scalar FogNoLB.fog[46].dispatcher droppedJobsSLA 0
scalar FogNoLB.fog[46].dispatcher jobs_class_1 581574
scalar FogNoLB.fog[46].dispatcher localJobs_class_1 581574
scalar FogNoLB.fog[46].server[0] rho 0.87504458427429
scalar FogNoLB.fog[46].server[0] congestionRatio 0
scalar FogNoLB.fog[46].server[0] totalJobs 581574
scalar FogNoLB.fog[46].server[0] droppedJobsQueue 15682
scalar FogNoLB.fog[46].server[0] droppedJobsTimout 0
scalar FogNoLB.fog[46].server[0] droppedJobsSLA 0
scalar FogNoLB.fog[46].server[0] droppedJobsTotal 15682
scalar FogNoLB.fog[47].dispatcher localJobs 582136
scalar FogNoLB.fog[47].dispatcher remoteJobs 0
scalar FogNoLB.fog[47].dispatcher probeQueries 0
scalar FogNoLB.fog[47].dispatcher probeAnswers 0
scalar FogNoLB.fog[47].dispatcher droppedJobsSLA 0
scalar FogNoLB.fog[47].dispatcher jobs_class_1 582136
scalar FogNoLB.fog[47].dispatcher localJobs_class_1 582136
scalar FogNoLB.fog[47].server[0] rho 0.87577605247498
scalar FogNoLB.fog[47].server[0] congestionRatio 0
scalar FogNoLB.fog[47].server[0] totalJobs 582136
scalar FogNoLB.fog[47].server[0] droppedJobsQueue 15731
scalar FogNoLB.fog[47].server[0] droppedJobsTimout 0
scalar FogNoLB.fog[47].server[0] droppedJobsSLA 0
scalar FogNoLB.fog[47].server[0] droppedJobsTotal 15731
scalar FogNoLB.fog[48].dispatcher localJobs 582643
scalar FogNoLB.fog[48].dispatcher remoteJobs 0
scalar FogNoLB.fog[48].dispatcher probeQueries 0
scalar FogNoLB.fog[48].dispatcher probeAnswers 0
scalar FogNoLB.fog[48].dispatcher droppedJobsSLA 0
scalar FogNoLB.fog[48].dispatcher jobs_class_1 582643
scalar FogNoLB.fog[48].dispatcher localJobs_class_1 582643
scalar FogNoLB.fog[48].server[0] rho 0.87570995092392
scalar FogNoLB.fog[48].server[0] congestionRatio 0
scalar FogNoLB.fog[48].server[0] totalJobs 582643
scalar FogNoLB.fog[48].server[0] droppedJobsQueue 16305
scalar FogNoLB.fog[48].server[0] droppedJobsTimout 0
scalar FogNoLB.fog[48].server[0] droppedJobsSLA 0
scalar FogNoLB.fog[48].server[0] droppedJobsTotal 16305
scalar FogNoLB.fog[49].dispatcher localJobs 581920
scalar FogNoLB.fog[49].dispatcher remoteJobs 0
scalar FogNoLB.fog[49].dispatcher probeQueries 0
scalar FogNoLB.fog[49].dispatcher probeAnswers 0
scalar FogNoLB.fog[49].dispatcher droppedJobsSLA 0
scalar FogNoLB.fog[49].dispatcher jobs_class_1 581920
scalar FogNoLB.fog[49].dispatcher localJobs_class_1 581920
scalar FogNoLB.fog[49].server[0] rho 0.87523347139359
scalar FogNoLB.fog[49].server[0] congestionRatio 0
scalar FogNoLB.fog[49].server[0] totalJobs 581920
scalar FogNoLB.fog[49].server[0] droppedJobsQueue 15892
scalar FogNoLB.fog[49].server[0] droppedJobsTimout 0
scalar FogNoLB.fog[49].server[0] droppedJobsSLA 0
scalar FogNoLB.fog[49].server[0] droppedJobsTotal 15892
scalar FogNoLB.fog[50].dispatcher localJobs 582774
scalar FogNoLB.fog[50].dispatcher remoteJobs 0
scalar FogNoLB.fog[50].dispatcher probeQueries 0
scalar FogNoLB.fog[50].dispatcher probeAnswers 0
scalar FogNoLB.fog[50].dispatcher droppedJobsSLA 0
scalar FogNoLB.fog[50].dispatcher jobs_class_1 582774
scalar FogNoLB.fog[50].dispatcher localJobs_class_1 582774
scalar FogNoLB.fog[50].server[0] rho 0.87582910060883
scalar FogNoLB.fog[50].server[0] congestionRatio 0
scalar FogNoLB.fog[50].server[0] totalJobs 582774
scalar FogNoLB.fog[50].server[0] droppedJobsQueue 16383
scalar FogNoLB.fog[50].server[0] droppedJobsTimout 0
scalar FogNoLB.fog[50].server[0] droppedJobsSLA 0
scalar FogNoLB.fog[50].server[0] droppedJobsTotal 16383
scalar FogNoLB.fog[51].dispatcher localJobs 580795
scalar FogNoLB.fog[51].dispatcher remoteJobs 0
scalar FogNoLB.fog[51].dispatcher probeQueries 0
scalar FogNoLB.fog[51].dispatcher probeAnswers 0
scalar FogNoLB.fog[51].dispatcher droppedJobsSLA 0
scalar FogNoLB.fog[51].dispatcher jobs_class_1 580795
scalar FogNoLB.fog[51].dispatcher localJobs_class_1 580795
scalar FogNoLB.fog[51].server[0] rho 0.87395888566971
scalar FogNoLB.fog[51].server[0] congestionRatio 0
scalar FogNoLB.fog[51].server[0] totalJobs 580795
scalar FogNoLB.fog[51].server[0] droppedJobsQueue 15622
scalar FogNoLB.fog[51].server[0] droppedJobsTimout 0
scalar FogNoLB.fog[51].server[0] droppedJobsSLA 0
scalar FogNoLB.fog[51].server[0] droppedJobsTotal 15622
scalar FogNoLB.fog[52].dispatcher localJobs 580923
scalar FogNoLB.fog[52].dispatcher remoteJobs 0
scalar FogNoLB.fog[52].dispatcher probeQueries 0
scalar FogNoLB.fog[52].dispatcher probeAnswers 0
scalar FogNoLB.fog[52].dispatcher droppedJobsSLA 0
scalar FogNoLB.fog[52].dispatcher jobs_class_1 580923
scalar FogNoLB.fog[52].dispatcher localJobs_class_1 580923
scalar FogNoLB.fog[52].server[0] rho 0.87425595521927
scalar FogNoLB.fog[52].server[0] congestionRatio 0
scalar FogNoLB.fog[52].server[0] totalJobs 580923
scalar FogNoLB.fog[52].server[0] droppedJobsQueue 15499
scalar FogNoLB.fog[52].server[0] droppedJobsTimout 0
scalar FogNoLB.fog[52].server[0] droppedJobsSLA 0
scalar FogNoLB.fog[52].server[0] droppedJobsTotal 15499
scalar FogNoLB.fog[53].dispatcher localJobs 582299
scalar FogNoLB.fog[53].dispatcher remoteJobs 0
scalar FogNoLB.fog[53].dispatcher probeQueries 0
scalar FogNoLB.fog[53].dispatcher probeAnswers 0
scalar FogNoLB.fog[53].dispatcher droppedJobsSLA 0
scalar FogNoLB.fog[53].dispatcher jobs_class_1 582299
scalar FogNoLB.fog[53].dispatcher localJobs_class_1 582299
scalar FogNoLB.fog[53].server[0] rho 0.87637394666672
scalar FogNoLB.fog[53].server[0] congestionRatio 0
scalar FogNoLB.fog[53].server[0] totalJobs 582299
scalar FogNoLB.fog[53].server[0] droppedJobsQueue 15589
scalar FogNoLB.fog[53].server[0] droppedJobsTimout 0
scalar FogNoLB.fog[53].server[0] droppedJobsSLA 0
scalar FogNoLB.fog[53].server[0] droppedJobsTotal 15589
scalar FogNoLB.fog[54].dispatcher localJobs 581815
scalar FogNoLB.fog[54].dispatcher remoteJobs 0
scalar FogNoLB.fog[54].dispatcher probeQueries 0
scalar FogNoLB.fog[54].dispatcher probeAnswers 0
scalar FogNoLB.fog[54].dispatcher droppedJobsSLA 0
scalar FogNoLB.fog[54].dispatcher jobs_class_1 581815
scalar FogNoLB.fog[54].dispatcher localJobs_class_1 581815
scalar FogNoLB.fog[54].server[0] rho 0.8759480714798
scalar FogNoLB.fog[54].server[0] congestionRatio 0
scalar FogNoLB.fog[54].server[0] totalJobs 581815
scalar FogNoLB.fog[54].server[0] droppedJobsQueue 15355
scalar FogNoLB.fog[54].server[0] droppedJobsTimout 0
scalar FogNoLB.fog[54].server[0] droppedJobsSLA 0
scalar FogNoLB.fog[54].server[0] droppedJobsTotal 15355
scalar FogNoLB.fog[55].dispatcher localJobs 580214
scalar FogNoLB.fog[55].dispatcher remoteJobs 0
scalar FogNoLB.fog[55].dispatcher probeQueries 0
scalar FogNoLB.fog[55].dispatcher probeAnswers 0
scalar FogNoLB.fog[55].dispatcher droppedJobsSLA 0
scalar FogNoLB.fog[55].dispatcher jobs_class_1 580214
scalar FogNoLB.fog[55].dispatcher localJobs_class_1 580214
scalar FogNoLB.fog[55].server[0] rho 0.87364596128464
scalar FogNoLB.fog[55].server[0] congestionRatio 0
scalar FogNoLB.fog[55].server[0] totalJobs 580214
scalar FogNoLB.fog[55].server[0] droppedJobsQueue 15212
scalar FogNoLB.fog[55].server[0] droppedJobsTimout 0
scalar FogNoLB.fog[55].server[0] droppedJobsSLA 0
scalar FogNoLB.fog[55].server[0] droppedJobsTotal 15212
scalar FogNoLB.fog[56].dispatcher localJobs 582187
scalar FogNoLB.fog[56].dispatcher remoteJobs 0
scalar FogNoLB.fog[56].dispatcher probeQueries 0
scalar FogNoLB.fog[56].dispatcher probeAnswers 0
scalar FogNoLB.fog[56].dispatcher droppedJobsSLA 0
scalar FogNoLB.fog[56].dispatcher jobs_class_1 582187
scalar FogNoLB.fog[56].dispatcher localJobs_class_1 582187
scalar FogNoLB.fog[56].server[0] rho 0.87535053491592
scalar FogNoLB.fog[56].server[0] congestionRatio 0
scalar FogNoLB.fog[56].server[0] totalJobs 582187
scalar FogNoLB.fog[56].server[0] droppedJobsQueue 16105
scalar FogNoLB.fog[56].server[0] droppedJobsTimout 0
scalar FogNoLB.fog[56].server[0] droppedJobsSLA 0
scalar FogNoLB.fog[56].server[0] droppedJobsTotal 16105
scalar FogNoLB.fog[57].dispatcher localJobs 582088
scalar FogNoLB.fog[57].dispatcher remoteJobs 0
scalar FogNoLB.fog[57].dispatcher probeQueries 0
scalar FogNoLB.fog[57].dispatcher probeAnswers 0
scalar FogNoLB.fog[57].dispatcher droppedJobsSLA 0
scalar FogNoLB.fog[57].dispatcher jobs_class_1 582088
scalar FogNoLB.fog[57].dispatcher localJobs_class_1 582088
scalar FogNoLB.fog[57].server[0] rho 0.87566077709198
scalar FogNoLB.fog[57].server[0] congestionRatio 0
scalar FogNoLB.fog[57].server[0] totalJobs 582088
scalar FogNoLB.fog[57].server[0] droppedJobsQueue 15781
scalar FogNoLB.fog[57].server[0] droppedJobsTimout 0
scalar FogNoLB.fog[57].server[0] droppedJobsSLA 0
scalar FogNoLB.fog[57].server[0] droppedJobsTotal 15781
scalar FogNoLB.fog[58].dispatcher localJobs 580710
scalar FogNoLB.fog[58].dispatcher remoteJobs 0
scalar FogNoLB.fog[58].dispatcher probeQueries 0
scalar FogNoLB.fog[58].dispatcher probeAnswers 0
scalar FogNoLB.fog[58].dispatcher droppedJobsSLA 0
scalar FogNoLB.fog[58].dispatcher jobs_class_1 580710
scalar FogNoLB.fog[58].dispatcher localJobs_class_1 580710
scalar FogNoLB.fog[58].server[0] rho 0.87399208545685
scalar FogNoLB.fog[58].server[0] congestionRatio 0
scalar FogNoLB.fog[58].server[0] totalJobs 580710
scalar FogNoLB.fog[58].server[0] droppedJobsQueue 15489
scalar FogNoLB.fog[58].server[0] droppedJobsTimout 0
scalar FogNoLB.fog[58].server[0] droppedJobsSLA 0
scalar FogNoLB.fog[58].server[0] droppedJobsTotal 15489
scalar FogNoLB.fog[59].dispatcher localJobs 583146
scalar FogNoLB.fog[59].dispatcher remoteJobs 0
scalar FogNoLB.fog[59].dispatcher probeQueries 0
scalar FogNoLB.fog[59].dispatcher probeAnswers 0
scalar FogNoLB.fog[59].dispatcher droppedJobsSLA 0
scalar FogNoLB.fog[59].dispatcher jobs_class_1 583146
scalar FogNoLB.fog[59].dispatcher localJobs_class_1 583146
scalar FogNoLB.fog[59].server[0] rho 0.8767814040184
scalar FogNoLB.fog[59].server[0] congestionRatio 0
scalar FogNoLB.fog[59].server[0] totalJobs 583146
scalar FogNoLB.fog[59].server[0] droppedJobsQueue 16148
scalar FogNoLB.fog[59].server[0] droppedJobsTimout 0
scalar FogNoLB.fog[59].server[0] droppedJobsSLA 0
scalar FogNoLB.fog[59].server[0] droppedJobsTotal 16148
scalar FogNoLB.fog[60].dispatcher localJobs 581280
scalar FogNoLB.fog[60].dispatcher remoteJobs 0
scalar FogNoLB.fog[60].dispatcher probeQueries 0
scalar FogNoLB.fog[60].dispatcher probeAnswers 0
scalar FogNoLB.fog[60].dispatcher droppedJobsSLA 0
scalar FogNoLB.fog[60].dispatcher jobs_class_1 581280
scalar FogNoLB.fog[60].dispatcher localJobs_class_1 581280
scalar FogNoLB.fog[60].server[0] rho 0.87399500608444
scalar FogNoLB.fog[60].server[0] congestionRatio 0
scalar FogNoLB.fog[60].server[0] totalJobs 581280
scalar FogNoLB.fog[60].server[0] droppedJobsQueue 16072
scalar FogNoLB.fog[60].server[0] droppedJobsTimout 0
scalar FogNoLB.fog[60].server[0] droppedJobsSLA 0
scalar FogNoLB.fog[60].server[0] droppedJobsTotal 16072
scalar FogNoLB.fog[61].dispatcher localJobs 582344
scalar FogNoLB.fog[61].dispatcher remoteJobs 0
scalar FogNoLB.fog[61].dispatcher probeQueries 0
scalar FogNoLB.fog[61].dispatcher probeAnswers 0
scalar FogNoLB.fog[61].dispatcher droppedJobsSLA 0
scalar FogNoLB.fog[61].dispatcher jobs_class_1 582344
scalar FogNoLB.fog[61].dispatcher localJobs_class_1 582344
scalar FogNoLB.fog[61].server[0] rho 0.87575995922089
scalar FogNoLB.fog[61].server[0] congestionRatio 0
scalar FogNoLB.fog[61].server[0] totalJobs 582344
scalar FogNoLB.fog[61].server[0] droppedJobsQueue 15981
scalar FogNoLB.fog[61].server[0] droppedJobsTimout 0
scalar FogNoLB.fog[61].server[0] droppedJobsSLA 0
scalar FogNoLB.fog[61].server[0] droppedJobsTotal 15981
scalar FogNoLB.fog[62].dispatcher localJobs 582382
scalar FogNoLB.fog[62].dispatcher remoteJobs 0
scalar FogNoLB.fog[62].dispatcher probeQueries 0
scalar FogNoLB.fog[62].dispatcher probeAnswers 0
scalar FogNoLB.fog[62].dispatcher droppedJobsSLA 0
scalar FogNoLB.fog[62].dispatcher jobs_class_1 582382
scalar FogNoLB.fog[62].dispatcher localJobs_class_1 582382
scalar FogNoLB.fog[62].server[0] rho 0.87582248449326
scalar FogNoLB.fog[62].server[0] congestionRatio 0
scalar FogNoLB.fog[62].server[0] totalJobs 582382
scalar FogNoLB.fog[62].server[0] droppedJobsQueue 16011
scalar FogNoLB.fog[62].server[0] droppedJobsTimout 0
scalar FogNoLB.fog[62].server[0] droppedJobsSLA 0
scalar FogNoLB.fog[62].server[0] droppedJobsTotal 16011
scalar FogNoLB.fog[63].dispatcher localJobs 581424
scalar FogNoLB.fog[63].dispatcher remoteJobs 0
scalar FogNoLB.fog[63].dispatcher probeQueries 0
scalar FogNoLB.fog[63].dispatcher probeAnswers 0
scalar FogNoLB.fog[63].dispatcher droppedJobsSLA 0
scalar FogNoLB.fog[63].dispatcher jobs_class_1 581424
scalar FogNoLB.fog[63].dispatcher localJobs_class_1 581424
scalar FogNoLB.fog[63].server[0] rho 0.87428826093674
scalar FogNoLB.fog[63].server[0] congestionRatio 0
scalar FogNoLB.fog[63].server[0] totalJobs 581424
scalar FogNoLB.fog[63].server[0] droppedJobsQueue 15981
scalar FogNoLB.fog[63].server[0] droppedJobsTimout 0
scalar FogNoLB.fog[63].server[0] droppedJobsSLA 0
scalar FogNoLB.fog[63].server[0] droppedJobsTotal 15981
scalar FogNoLB.fog[64].dispatcher localJobs 583091
scalar FogNoLB.fog[64].dispatcher remoteJobs 0
scalar FogNoLB.fog[64].dispatcher probeQueries 0
scalar FogNoLB.fog[64].dispatcher probeAnswers 0
scalar FogNoLB.fog[64].dispatcher droppedJobsSLA 0
scalar FogNoLB.fog[64].dispatcher jobs_class_1 583091
scalar FogNoLB.fog[64].dispatcher localJobs_class_1 583091
scalar FogNoLB.fog[64].server[0] rho 0.87737941741943
scalar FogNoLB.fog[64].server[0] congestionRatio 0
scalar FogNoLB.fog[64].server[0] totalJobs 583091
scalar FogNoLB.fog[64].server[0] droppedJobsQueue 15677
scalar FogNoLB.fog[64].server[0] droppedJobsTimout 0
scalar FogNoLB.fog[64].server[0] droppedJobsSLA 0
scalar FogNoLB.fog[64].server[0] droppedJobsTotal 15677
scalar FogNoLB.fog[65].dispatcher localJobs 581027
scalar FogNoLB.fog[65].dispatcher remoteJobs 0
scalar FogNoLB.fog[65].dispatcher probeQueries 0
scalar FogNoLB.fog[65].dispatcher probeAnswers 0
scalar FogNoLB.fog[65].dispatcher droppedJobsSLA 0
scalar FogNoLB.fog[65].dispatcher jobs_class_1 581027
scalar FogNoLB.fog[65].dispatcher localJobs_class_1 581027
scalar FogNoLB.fog[65].server[0] rho 0.87419480085373
scalar FogNoLB.fog[65].server[0] congestionRatio 0
scalar FogNoLB.fog[65].server[0] totalJobs 581027
scalar FogNoLB.fog[65].server[0] droppedJobsQueue 15662
scalar FogNoLB.fog[65].server[0] droppedJobsTimout 0
scalar FogNoLB.fog[65].server[0] droppedJobsSLA 0
scalar FogNoLB.fog[65].server[0] droppedJobsTotal 15662
scalar FogNoLB.fog[66].dispatcher localJobs 580512
scalar FogNoLB.fog[66].dispatcher remoteJobs 0
scalar FogNoLB.fog[66].dispatcher probeQueries 0
scalar FogNoLB.fog[66].dispatcher probeAnswers 0
scalar FogNoLB.fog[66].dispatcher droppedJobsSLA 0
scalar FogNoLB.fog[66].dispatcher jobs_class_1 580512
scalar FogNoLB.fog[66].dispatcher localJobs_class_1 580512
scalar FogNoLB.fog[66].server[0] rho 0.87369048595428
scalar FogNoLB.fog[66].server[0] congestionRatio 0
scalar FogNoLB.fog[66].server[0] totalJobs 580512
scalar FogNoLB.fog[66].server[0] droppedJobsQueue 15520
scalar FogNoLB.fog[66].server[0] droppedJobsTimout 0
scalar FogNoLB.fog[66].server[0] droppedJobsSLA 0
scalar FogNoLB.fog[66].server[0] droppedJobsTotal 15520
scalar FogNoLB.fog[67].dispatcher localJobs 582653
scalar FogNoLB.fog[67].dispatcher remoteJobs 0
scalar FogNoLB.fog[67].dispatcher probeQueries 0
scalar FogNoLB.fog[67].dispatcher probeAnswers 0
scalar FogNoLB.fog[67].dispatcher droppedJobsSLA 0
scalar FogNoLB.fog[67].dispatcher jobs_class_1 582653
scalar FogNoLB.fog[67].dispatcher localJobs_class_1 582653
scalar FogNoLB.fog[67].server[0] rho 0.87579619884491
scalar FogNoLB.fog[67].server[0] congestionRatio 0
scalar FogNoLB.fog[67].server[0] totalJobs 582653
scalar FogNoLB.fog[67].server[0] droppedJobsQueue 16267
scalar FogNoLB.fog[67].server[0] droppedJobsTimout 0
scalar FogNoLB.fog[67].server[0] droppedJobsSLA 0
scalar FogNoLB.fog[67].server[0] droppedJobsTotal 16267
scalar FogNoLB.fog[68].dispatcher localJobs 583213
scalar FogNoLB.fog[68].dispatcher remoteJobs 0
scalar FogNoLB.fog[68].dispatcher probeQueries 0
scalar FogNoLB.fog[68].dispatcher probeAnswers 0
scalar FogNoLB.fog[68].dispatcher droppedJobsSLA 0
scalar FogNoLB.fog[68].dispatcher jobs_class_1 583213
scalar FogNoLB.fog[68].dispatcher localJobs_class_1 583213
scalar FogNoLB.fog[68].server[0] rho 0.876325070858
scalar FogNoLB.fog[68].server[0] congestionRatio 0
scalar FogNoLB.fog[68].server[0] totalJobs 583213
scalar FogNoLB.fog[68].server[0] droppedJobsQueue 16467
scalar FogNoLB.fog[68].server[0] droppedJobsTimout 0
scalar FogNoLB.fog[68].server[0] droppedJobsSLA 0
scalar FogNoLB.fog[68].server[0] droppedJobsTotal 16467
scalar FogNoLB.fog[69].dispatcher localJobs 582217
scalar FogNoLB.fog[69].dispatcher remoteJobs 0
scalar FogNoLB.fog[69].dispatcher probeQueries 0
scalar FogNoLB.fog[69].dispatcher probeAnswers 0
scalar FogNoLB.fog[69].dispatcher droppedJobsSLA 0
scalar FogNoLB.fog[69].dispatcher jobs_class_1 582217
scalar FogNoLB.fog[69].dispatcher localJobs_class_1 582217
scalar FogNoLB.fog[69].server[0] rho 0.87609016895294
scalar FogNoLB.fog[69].server[0] congestionRatio 0
scalar FogNoLB.fog[69].server[0] totalJobs 582217
scalar FogNoLB.fog[69].server[0] droppedJobsQueue 15639
scalar FogNoLB.fog[69].server[0] droppedJobsTimout 0
scalar FogNoLB.fog[69].server[0] droppedJobsSLA 0
scalar FogNoLB.fog[69].server[0] droppedJobsTotal 15639
scalar FogNoLB.fog[70].dispatcher localJobs 581723
scalar FogNoLB.fog[70].dispatcher remoteJobs 0
scalar FogNoLB.fog[70].dispatcher probeQueries 0
scalar FogNoLB.fog[70].dispatcher probeAnswers 0
scalar FogNoLB.fog[70].dispatcher droppedJobsSLA 0
scalar FogNoLB.fog[70].dispatcher jobs_class_1 581723
scalar FogNoLB.fog[70].dispatcher localJobs_class_1 581723
scalar FogNoLB.fog[70].server[0] rho 0.87514841556549
scalar FogNoLB.fog[70].server[0] congestionRatio 0
scalar FogNoLB.fog[70].server[0] totalJobs 581723
scalar FogNoLB.fog[70].server[0] droppedJobsQueue 15753
scalar FogNoLB.fog[70].server[0] droppedJobsTimout 0
scalar FogNoLB.fog[70].server[0] droppedJobsSLA 0
scalar FogNoLB.fog[70].server[0] droppedJobsTotal 15753
scalar FogNoLB.fog[71].dispatcher localJobs 583665
scalar FogNoLB.fog[71].dispatcher remoteJobs 0
scalar FogNoLB.fog[71].dispatcher probeQueries 0
scalar FogNoLB.fog[71].dispatcher probeAnswers 0
scalar FogNoLB.fog[71].dispatcher droppedJobsSLA 0
scalar FogNoLB.fog[71].dispatcher jobs_class_1 583665
scalar FogNoLB.fog[71].dispatcher localJobs_class_1 583665
scalar FogNoLB.fog[71].server[0] rho 0.87672913074493
scalar FogNoLB.fog[71].server[0] congestionRatio 0
scalar FogNoLB.fog[71].server[0] totalJobs 583665
scalar FogNoLB.fog[71].server[0] droppedJobsQueue 16671
scalar FogNoLB.fog[71].server[0] droppedJobsTimout 0
scalar FogNoLB.fog[71].server[0] droppedJobsSLA 0
scalar FogNoLB.fog[71].server[0] droppedJobsTotal 16671
scalar FogNoLB.fog[72].dispatcher localJobs 581780
scalar FogNoLB.fog[72].dispatcher remoteJobs 0
scalar FogNoLB.fog[72].dispatcher probeQueries 0
scalar FogNoLB.fog[72].dispatcher probeAnswers 0
scalar FogNoLB.fog[72].dispatcher droppedJobsSLA 0
scalar FogNoLB.fog[72].dispatcher jobs_class_1 581780
scalar FogNoLB.fog[72].dispatcher localJobs_class_1 581780
scalar FogNoLB.fog[72].server[0] rho 0.87548518180847
scalar FogNoLB.fog[72].server[0] congestionRatio 0
scalar FogNoLB.fog[72].server[0] totalJobs 581780
scalar FogNoLB.fog[72].server[0] droppedJobsQueue 15596
scalar FogNoLB.fog[72].server[0] droppedJobsTimout 0
scalar FogNoLB.fog[72].server[0] droppedJobsSLA 0
scalar FogNoLB.fog[72].server[0] droppedJobsTotal 15596
scalar FogNoLB.fog[73].dispatcher localJobs 582969
scalar FogNoLB.fog[73].dispatcher remoteJobs 0
scalar FogNoLB.fog[73].dispatcher probeQueries 0
scalar FogNoLB.fog[73].dispatcher probeAnswers 0
scalar FogNoLB.fog[73].dispatcher droppedJobsSLA 0
scalar FogNoLB.fog[73].dispatcher jobs_class_1 582969
scalar FogNoLB.fog[73].dispatcher localJobs_class_1 582969
scalar FogNoLB.fog[73].server[0] rho 0.87645536661148
scalar FogNoLB.fog[73].server[0] congestionRatio 0
scalar FogNoLB.fog[73].server[0] totalJobs 582969
scalar FogNoLB.fog[73].server[0] droppedJobsQueue 16158
scalar FogNoLB.fog[73].server[0] droppedJobsTimout 0
scalar FogNoLB.fog[73].server[0] droppedJobsSLA 0
scalar FogNoLB.fog[73].server[0] droppedJobsTotal 16158
scalar FogNoLB.fog[74].dispatcher localJobs 581762
scalar FogNoLB.fog[74].dispatcher remoteJobs 0
scalar FogNoLB.fog[74].dispatcher probeQueries 0
scalar FogNoLB.fog[74].dispatcher probeAnswers 0
scalar FogNoLB.fog[74].dispatcher droppedJobsSLA 0
scalar FogNoLB.fog[74].dispatcher jobs_class_1 581762
scalar FogNoLB.fog[74].dispatcher localJobs_class_1 581762
scalar FogNoLB.fog[74].server[0] rho 0.8755287528038
scalar FogNoLB.fog[74].server[0] congestionRatio 0
scalar FogNoLB.fog[74].server[0] totalJobs 581762
scalar FogNoLB.fog[74].server[0] droppedJobsQueue 15535
scalar FogNoLB.fog[74].server[0] droppedJobsTimout 0
scalar FogNoLB.fog[74].server[0] droppedJobsSLA 0
scalar FogNoLB.fog[74].server[0] droppedJobsTotal 15535
scalar FogNoLB.fog[75].dispatcher localJobs 581326
scalar FogNoLB.fog[75].dispatcher remoteJobs 0
scalar FogNoLB.fog[75].dispatcher probeQueries 0
scalar FogNoLB.fog[75].dispatcher probeAnswers 0
scalar FogNoLB.fog[75].dispatcher droppedJobsSLA 0
scalar FogNoLB.fog[75].dispatcher jobs_class_1 581326
scalar FogNoLB.fog[75].dispatcher localJobs_class_1 581326
scalar FogNoLB.fog[75].server[0] rho 0.87404507398605
scalar FogNoLB.fog[75].server[0] congestionRatio 0
scalar FogNoLB.fog[75].server[0] totalJobs 581326
scalar FogNoLB.fog[75].server[0] droppedJobsQueue 16073
scalar FogNoLB.fog[75].server[0] droppedJobsTimout 0
scalar FogNoLB.fog[75].server[0] droppedJobsSLA 0
scalar FogNoLB.fog[75].server[0] droppedJobsTotal 16073
scalar FogNoLB.fog[76].dispatcher localJobs 582696
scalar FogNoLB.fog[76].dispatcher remoteJobs 0
scalar FogNoLB.fog[76].dispatcher probeQueries 0
scalar FogNoLB.fog[76].dispatcher probeAnswers 0
scalar FogNoLB.fog[76].dispatcher droppedJobsSLA 0
scalar FogNoLB.fog[76].dispatcher jobs_class_1 582696
scalar FogNoLB.fog[76].dispatcher localJobs_class_1 582696
scalar FogNoLB.fog[76].server[0] rho 0.87624728679657
scalar FogNoLB.fog[76].server[0] congestionRatio 0
scalar FogNoLB.fog[76].server[0] totalJobs 582696
scalar FogNoLB.fog[76].server[0] droppedJobsQueue 15999
scalar FogNoLB.fog[76].server[0] droppedJobsTimout 0
scalar FogNoLB.fog[76].server[0] droppedJobsSLA 0
scalar FogNoLB.fog[76].server[0] droppedJobsTotal 15999
scalar FogNoLB.fog[77].dispatcher localJobs 580824
scalar FogNoLB.fog[77].dispatcher remoteJobs 0
scalar FogNoLB.fog[77].dispatcher probeQueries 0
scalar FogNoLB.fog[77].dispatcher probeAnswers 0
scalar FogNoLB.fog[77].dispatcher droppedJobsSLA 0
scalar FogNoLB.fog[77].dispatcher jobs_class_1 580824
scalar FogNoLB.fog[77].dispatcher localJobs_class_1 580824
scalar FogNoLB.fog[77].server[0] rho 0.87389296293259
scalar FogNoLB.fog[77].server[0] congestionRatio 0
scalar FogNoLB.fog[77].server[0] totalJobs 580824
scalar FogNoLB.fog[77].server[0] droppedJobsQueue 15682
scalar FogNoLB.fog[77].server[0] droppedJobsTimout 0
scalar FogNoLB.fog[77].server[0] droppedJobsSLA 0
scalar FogNoLB.fog[77].server[0] droppedJobsTotal 15682
scalar FogNoLB.fog[78].dispatcher localJobs 582214
scalar FogNoLB.fog[78].dispatcher remoteJobs 0
scalar FogNoLB.fog[78].dispatcher probeQueries 0
scalar FogNoLB.fog[78].dispatcher probeAnswers 0
scalar FogNoLB.fog[78].dispatcher droppedJobsSLA 0
scalar FogNoLB.fog[78].dispatcher jobs_class_1 582214
scalar FogNoLB.fog[78].dispatcher localJobs_class_1 582214
scalar FogNoLB.fog[78].server[0] rho 0.87591505050659
scalar FogNoLB.fog[78].server[0] congestionRatio 0
scalar FogNoLB.fog[78].server[0] totalJobs 582214
scalar FogNoLB.fog[78].server[0] droppedJobsQueue 15759
scalar FogNoLB.fog[78].server[0] droppedJobsTimout 0
scalar FogNoLB.fog[78].server[0] droppedJobsSLA 0
scalar FogNoLB.fog[78].server[0] droppedJobsTotal 15759
scalar FogNoLB.fog[79].dispatcher localJobs 581808
scalar FogNoLB.fog[79].dispatcher remoteJobs 0
scalar FogNoLB.fog[79].dispatcher probeQueries 0
scalar FogNoLB.fog[79].dispatcher probeAnswers 0
scalar FogNoLB.fog[79].dispatcher droppedJobsSLA 0
scalar FogNoLB.fog[79].dispatcher jobs_class_1 581808
scalar FogNoLB.fog[79].dispatcher localJobs_class_1 581808
scalar FogNoLB.fog[79].server[0] rho 0.87476670742035
scalar FogNoLB.fog[79].server[0] congestionRatio 0
scalar FogNoLB.fog[79].server[0] totalJobs 581808
scalar FogNoLB.fog[79].server[0] droppedJobsQueue 16089
scalar FogNoLB.fog[79].server[0] droppedJobsTimout 0
scalar FogNoLB.fog[79].server[0] droppedJobsSLA 0
scalar FogNoLB.fog[79].server[0] droppedJobsTotal 16089
scalar FogNoLB.fog[80].dispatcher localJobs 581575
scalar FogNoLB.fog[80].dispatcher remoteJobs 0
scalar FogNoLB.fog[80].dispatcher probeQueries 0
scalar FogNoLB.fog[80].dispatcher probeAnswers 0
scalar FogNoLB.fog[80].dispatcher droppedJobsSLA 0
scalar FogNoLB.fog[80].dispatcher jobs_class_1 581575
scalar FogNoLB.fog[80].dispatcher localJobs_class_1 581575
scalar FogNoLB.fog[80].server[0] rho 0.87502491474152
scalar FogNoLB.fog[80].server[0] congestionRatio 0
scalar FogNoLB.fog[80].server[0] totalJobs 581575
scalar FogNoLB.fog[80].server[0] droppedJobsQueue 15686
scalar FogNoLB.fog[80].server[0] droppedJobsTimout 0
scalar FogNoLB.fog[80].server[0] droppedJobsSLA 0
scalar FogNoLB.fog[80].server[0] droppedJobsTotal 15686
scalar FogNoLB.fog[81].dispatcher localJobs 580913
scalar FogNoLB.fog[81].dispatcher remoteJobs 0
scalar FogNoLB.fog[81].dispatcher probeQueries 0
scalar FogNoLB.fog[81].dispatcher probeAnswers 0
scalar FogNoLB.fog[81].dispatcher droppedJobsSLA 0
scalar FogNoLB.fog[81].dispatcher jobs_class_1 580913
scalar FogNoLB.fog[81].dispatcher localJobs_class_1 580913
scalar FogNoLB.fog[81].server[0] rho 0.873978972435
scalar FogNoLB.fog[81].server[0] congestionRatio 0
scalar FogNoLB.fog[81].server[0] totalJobs 580913
scalar FogNoLB.fog[81].server[0] droppedJobsQueue 15681
scalar FogNoLB.fog[81].server[0] droppedJobsTimout 0
scalar FogNoLB.fog[81].server[0] droppedJobsSLA 0
scalar FogNoLB.fog[81].server[0] droppedJobsTotal 15681
scalar FogNoLB.fog[82].dispatcher localJobs 581968
scalar FogNoLB.fog[82].dispatcher remoteJobs 0
scalar FogNoLB.fog[82].dispatcher probeQueries 0
scalar FogNoLB.fog[82].dispatcher probeAnswers 0
scalar FogNoLB.fog[82].dispatcher droppedJobsSLA 0
scalar FogNoLB.fog[82].dispatcher jobs_class_1 581968
scalar FogNoLB.fog[82].dispatcher localJobs_class_1 581968
scalar FogNoLB.fog[82].server[0] rho 0.87435930967331
scalar FogNoLB.fog[82].server[0] congestionRatio 0
scalar FogNoLB.fog[82].server[0] totalJobs 581968
scalar FogNoLB.fog[82].server[0] droppedJobsQueue 16484
scalar FogNoLB.fog[82].server[0] droppedJobsTimout 0
scalar FogNoLB.fog[82].server[0] droppedJobsSLA 0
scalar FogNoLB.fog[82].server[0] droppedJobsTotal 16484
scalar FogNoLB.fog[83].dispatcher localJobs 583028
scalar FogNoLB.fog[83].dispatcher remoteJobs 0
scalar FogNoLB.fog[83].dispatcher probeQueries 0
scalar FogNoLB.fog[83].dispatcher probeAnswers 0
scalar FogNoLB.fog[83].dispatcher droppedJobsSLA 0
scalar FogNoLB.fog[83].dispatcher jobs_class_1 583028
scalar FogNoLB.fog[83].dispatcher localJobs_class_1 583028
scalar FogNoLB.fog[83].server[0] rho 0.87665838003159
scalar FogNoLB.fog[83].server[0] congestionRatio 0
scalar FogNoLB.fog[83].server[0] totalJobs 583028
scalar FogNoLB.fog[83].server[0] droppedJobsQueue 16065
scalar FogNoLB.fog[83].server[0] droppedJobsTimout 0
scalar FogNoLB.fog[83].server[0] droppedJobsSLA 0
scalar FogNoLB.fog[83].server[0] droppedJobsTotal 16065
scalar FogNoLB.fog[84].dispatcher localJobs 581455
scalar FogNoLB.fog[84].dispatcher remoteJobs 0
scalar FogNoLB.fog[84].dispatcher probeQueries 0
scalar FogNoLB.fog[84].dispatcher probeAnswers 0
scalar FogNoLB.fog[84].dispatcher droppedJobsSLA 0
scalar FogNoLB.fog[84].dispatcher jobs_class_1 581455
scalar FogNoLB.fog[84].dispatcher localJobs_class_1 581455
scalar FogNoLB.fog[84].server[0] rho 0.87432014942169
scalar FogNoLB.fog[84].server[0] congestionRatio 0
scalar FogNoLB.fog[84].server[0] totalJobs 581455
scalar FogNoLB.fog[84].server[0] droppedJobsQueue 15999
scalar FogNoLB.fog[84].server[0] droppedJobsTimout 0
scalar FogNoLB.fog[84].server[0] droppedJobsSLA 0
scalar FogNoLB.fog[84].server[0] droppedJobsTotal 15999
scalar FogNoLB.fog[85].dispatcher localJobs 581414
scalar FogNoLB.fog[85].dispatcher remoteJobs 0
scalar FogNoLB.fog[85].dispatcher probeQueries 0
scalar FogNoLB.fog[85].dispatcher probeAnswers 0
scalar FogNoLB.fog[85].dispatcher droppedJobsSLA 0
scalar FogNoLB.fog[85].dispatcher jobs_class_1 581414
scalar FogNoLB.fog[85].dispatcher localJobs_class_1 581414
scalar FogNoLB.fog[85].server[0] rho 0.87486237287521
scalar FogNoLB.fog[85].server[0] congestionRatio 0
scalar FogNoLB.fog[85].server[0] totalJobs 581414
scalar FogNoLB.fog[85].server[0] droppedJobsQueue 15631
scalar FogNoLB.fog[85].server[0] droppedJobsTimout 0
scalar FogNoLB.fog[85].server[0] droppedJobsSLA 0
scalar FogNoLB.fog[85].server[0] droppedJobsTotal 15631
scalar FogNoLB.fog[86].dispatcher localJobs 583244
scalar FogNoLB.fog[86].dispatcher remoteJobs 0
scalar FogNoLB.fog[86].dispatcher probeQueries 0
scalar FogNoLB.fog[86].dispatcher probeAnswers 0
scalar FogNoLB.fog[86].dispatcher droppedJobsSLA 0
scalar FogNoLB.fog[86].dispatcher jobs_class_1 583244
scalar FogNoLB.fog[86].dispatcher localJobs_class_1 583244
scalar FogNoLB.fog[86].server[0] rho 0.87620067596436
scalar FogNoLB.fog[86].server[0] congestionRatio 0
scalar FogNoLB.fog[86].server[0] totalJobs 583244
scalar FogNoLB.fog[86].server[0] droppedJobsQueue 16587
scalar FogNoLB.fog[86].server[0] droppedJobsTimout 0
scalar FogNoLB.fog[86].server[0] droppedJobsSLA 0
scalar FogNoLB.fog[86].server[0] droppedJobsTotal 16587
scalar FogNoLB.fog[87].dispatcher localJobs 581825
scalar FogNoLB.fog[87].dispatcher remoteJobs 0
scalar FogNoLB.fog[87].dispatcher probeQueries 0
scalar FogNoLB.fog[87].dispatcher probeAnswers 0
scalar FogNoLB.fog[87].dispatcher droppedJobsSLA 0
scalar FogNoLB.fog[87].dispatcher jobs_class_1 581825
scalar FogNoLB.fog[87].dispatcher localJobs_class_1 581825
scalar FogNoLB.fog[87].server[0] rho 0.87512689828873
scalar FogNoLB.fog[87].server[0] congestionRatio 0
scalar FogNoLB.fog[87].server[0] totalJobs 581825
scalar FogNoLB.fog[87].server[0] droppedJobsQueue 15854
scalar FogNoLB.fog[87].server[0] droppedJobsTimout 0
scalar FogNoLB.fog[87].server[0] droppedJobsSLA 0
scalar FogNoLB.fog[87].server[0] droppedJobsTotal 15854
scalar FogNoLB.fog[88].dispatcher localJobs 582058
scalar FogNoLB.fog[88].dispatcher remoteJobs 0
scalar FogNoLB.fog[88].dispatcher probeQueries 0
scalar FogNoLB.fog[88].dispatcher probeAnswers 0
scalar FogNoLB.fog[88].dispatcher droppedJobsSLA 0
scalar FogNoLB.fog[88].dispatcher jobs_class_1 582058
scalar FogNoLB.fog[88].dispatcher localJobs_class_1 582058
scalar FogNoLB.fog[88].server[0] rho 0.87515223026276
scalar FogNoLB.fog[88].server[0] congestionRatio 0
scalar FogNoLB.fog[88].server[0] totalJobs 582058
scalar FogNoLB.fog[88].server[0] droppedJobsQueue 16097
scalar FogNoLB.fog[88].server[0] droppedJobsTimout 0
scalar FogNoLB.fog[88].server[0] droppedJobsSLA 0
scalar FogNoLB.fog[88].server[0] droppedJobsTotal 16097
scalar FogNoLB.fog[89].dispatcher localJobs 581661
scalar FogNoLB.fog[89].dispatcher remoteJobs 0
scalar FogNoLB.fog[89].dispatcher probeQueries 0
scalar FogNoLB.fog[89].dispatcher probeAnswers 0
scalar FogNoLB.fog[89].dispatcher droppedJobsSLA 0
scalar FogNoLB.fog[89].dispatcher jobs_class_1 581661
scalar FogNoLB.fog[89].dispatcher localJobs_class_1 581661
scalar FogNoLB.fog[89].server[0] rho 0.87478882074356
scalar FogNoLB.fog[89].server[0] congestionRatio 0
scalar FogNoLB.fog[89].server[0] totalJobs 581661
scalar FogNoLB.fog[89].server[0] droppedJobsQueue 15918
scalar FogNoLB.fog[89].server[0] droppedJobsTimout 0
scalar FogNoLB.fog[89].server[0] droppedJobsSLA 0
scalar FogNoLB.fog[89].server[0] droppedJobsTotal 15918
scalar FogNoLB.fog[90].dispatcher localJobs 583880
scalar FogNoLB.fog[90].dispatcher remoteJobs 0
scalar FogNoLB.fog[90].dispatcher probeQueries 0
scalar FogNoLB.fog[90].dispatcher probeAnswers 0
scalar FogNoLB.fog[90].dispatcher droppedJobsSLA 0
scalar FogNoLB.fog[90].dispatcher jobs_class_1 583880
scalar FogNoLB.fog[90].dispatcher localJobs_class_1 583880
scalar FogNoLB.fog[90].server[0] rho 0.87743490934372
scalar FogNoLB.fog[90].server[0] congestionRatio 0
scalar FogNoLB.fog[90].server[0] totalJobs 583880
scalar FogNoLB.fog[90].server[0] droppedJobsQueue 16436
scalar FogNoLB.fog[90].server[0] droppedJobsTimout 0
scalar FogNoLB.fog[90].server[0] droppedJobsSLA 0
scalar FogNoLB.fog[90].server[0] droppedJobsTotal 16436
scalar FogNoLB.fog[91].dispatcher localJobs 581858
scalar FogNoLB.fog[91].dispatcher remoteJobs 0
scalar FogNoLB.fog[91].dispatcher probeQueries 0
scalar FogNoLB.fog[91].dispatcher probeAnswers 0
scalar FogNoLB.fog[91].dispatcher droppedJobsSLA 0
scalar FogNoLB.fog[91].dispatcher jobs_class_1 581858
scalar FogNoLB.fog[91].dispatcher localJobs_class_1 581858
scalar FogNoLB.fog[91].server[0] rho 0.87507283687592
scalar FogNoLB.fog[91].server[0] congestionRatio 0
scalar FogNoLB.fog[91].server[0] totalJobs 581858
scalar FogNoLB.fog[91].server[0] droppedJobsQueue 15934
scalar FogNoLB.fog[91].server[0] droppedJobsTimout 0
scalar FogNoLB.fog[91].server[0] droppedJobsSLA 0
scalar FogNoLB.fog[91].server[0] droppedJobsTotal 15934
scalar FogNoLB.fog[92].dispatcher localJobs 582326
scalar FogNoLB.fog[92].dispatcher remoteJobs 0
scalar FogNoLB.fog[92].dispatcher probeQueries 0
scalar FogNoLB.fog[92].dispatcher probeAnswers 0
scalar FogNoLB.fog[92].dispatcher droppedJobsSLA 0
scalar FogNoLB.fog[92].dispatcher jobs_class_1 582326
scalar FogNoLB.fog[92].dispatcher localJobs_class_1 582326
scalar FogNoLB.fog[92].server[0] rho 0.87635308504105
scalar FogNoLB.fog[92].server[0] congestionRatio 0
scalar FogNoLB.fog[92].server[0] totalJobs 582326
scalar FogNoLB.fog[92].server[0] droppedJobsQueue 15553
scalar FogNoLB.fog[92].server[0] droppedJobsTimout 0
scalar FogNoLB.fog[92].server[0] droppedJobsSLA 0
scalar FogNoLB.fog[92].server[0] droppedJobsTotal 15553
scalar FogNoLB.fog[93].dispatcher localJobs 581505
scalar FogNoLB.fog[93].dispatcher remoteJobs 0
scalar FogNoLB.fog[93].dispatcher probeQueries 0
scalar FogNoLB.fog[93].dispatcher probeAnswers 0
scalar FogNoLB.fog[93].dispatcher droppedJobsSLA 0
scalar FogNoLB.fog[93].dispatcher jobs_class_1 581505
scalar FogNoLB.fog[93].dispatcher localJobs_class_1 581505
scalar FogNoLB.fog[93].server[0] rho 0.87498098611832
scalar FogNoLB.fog[93].server[0] congestionRatio 0
scalar FogNoLB.fog[93].server[0] totalJobs 581505
scalar FogNoLB.fog[93].server[0] droppedJobsQueue 15636
scalar FogNoLB.fog[93].server[0] droppedJobsTimout 0
scalar FogNoLB.fog[93].server[0] droppedJobsSLA 0
scalar FogNoLB.fog[93].server[0] droppedJobsTotal 15636
scalar FogNoLB.fog[94].dispatcher localJobs 581867
scalar FogNoLB.fog[94].dispatcher remoteJobs 0
scalar FogNoLB.fog[94].dispatcher probeQueries 0
scalar FogNoLB.fog[94].dispatcher probeAnswers 0
scalar FogNoLB.fog[94].dispatcher droppedJobsSLA 0
scalar FogNoLB.fog[94].dispatcher jobs_class_1 581867
scalar FogNoLB.fog[94].dispatcher localJobs_class_1 581867
scalar FogNoLB.fog[94].server[0] rho 0.87527805566788
scalar FogNoLB.fog[94].server[0] congestionRatio 0
scalar FogNoLB.fog[94].server[0] totalJobs 581867
scalar FogNoLB.fog[94].server[0] droppedJobsQueue 15801
scalar FogNoLB.fog[94].server[0] droppedJobsTimout 0
scalar FogNoLB.fog[94].server[0] droppedJobsSLA 0
scalar FogNoLB.fog[94].server[0] droppedJobsTotal 15801
scalar FogNoLB.fog[95].dispatcher localJobs 582156
scalar FogNoLB.fog[95].dispatcher remoteJobs 0
scalar FogNoLB.fog[95].dispatcher probeQueries 0
scalar FogNoLB.fog[95].dispatcher probeAnswers 0
scalar FogNoLB.fog[95].dispatcher droppedJobsSLA 0
scalar FogNoLB.fog[95].dispatcher jobs_class_1 582156
scalar FogNoLB.fog[95].dispatcher localJobs_class_1 582156
scalar FogNoLB.fog[95].server[0] rho 0.87545317411423
scalar FogNoLB.fog[95].server[0] congestionRatio 0
scalar FogNoLB.fog[95].server[0] totalJobs 582156
scalar FogNoLB.fog[95].server[0] droppedJobsQueue 15987
scalar FogNoLB.fog[95].server[0] droppedJobsTimout 0
scalar FogNoLB.fog[95].server[0] droppedJobsSLA 0
scalar FogNoLB.fog[95].server[0] droppedJobsTotal 15987
scalar FogNoLB.fog[96].dispatcher localJobs 581033
scalar FogNoLB.fog[96].dispatcher remoteJobs 0
scalar FogNoLB.fog[96].dispatcher probeQueries 0
scalar FogNoLB.fog[96].dispatcher probeAnswers 0
scalar FogNoLB.fog[96].dispatcher droppedJobsSLA 0
scalar FogNoLB.fog[96].dispatcher jobs_class_1 581033
scalar FogNoLB.fog[96].dispatcher localJobs_class_1 581033
scalar FogNoLB.fog[96].server[0] rho 0.87437552213669
scalar FogNoLB.fog[96].server[0] congestionRatio 0
scalar FogNoLB.fog[96].server[0] totalJobs 581033
scalar FogNoLB.fog[96].server[0] droppedJobsQueue 15564
scalar FogNoLB.fog[96].server[0] droppedJobsTimout 0
scalar FogNoLB.fog[96].server[0] droppedJobsSLA 0
scalar FogNoLB.fog[96].server[0] droppedJobsTotal 15564
scalar FogNoLB.fog[97].dispatcher localJobs 582861
scalar FogNoLB.fog[97].dispatcher remoteJobs 0
scalar FogNoLB.fog[97].dispatcher probeQueries 0
scalar FogNoLB.fog[97].dispatcher probeAnswers 0
scalar FogNoLB.fog[97].dispatcher droppedJobsSLA 0
scalar FogNoLB.fog[97].dispatcher jobs_class_1 582861
scalar FogNoLB.fog[97].dispatcher localJobs_class_1 582861
scalar FogNoLB.fog[97].server[0] rho 0.87626791000366
scalar FogNoLB.fog[97].server[0] congestionRatio 0
scalar FogNoLB.fog[97].server[0] totalJobs 582861
scalar FogNoLB.fog[97].server[0] droppedJobsQueue 16179
scalar FogNoLB.fog[97].server[0] droppedJobsTimout 0
scalar FogNoLB.fog[97].server[0] droppedJobsSLA 0
scalar FogNoLB.fog[97].server[0] droppedJobsTotal 16179
scalar FogNoLB.fog[98].dispatcher localJobs 580733
scalar FogNoLB.fog[98].dispatcher remoteJobs 0
scalar FogNoLB.fog[98].dispatcher probeQueries 0
scalar FogNoLB.fog[98].dispatcher probeAnswers 0
scalar FogNoLB.fog[98].dispatcher droppedJobsSLA 0
scalar FogNoLB.fog[98].dispatcher jobs_class_1 580733
scalar FogNoLB.fog[98].dispatcher localJobs_class_1 580733
scalar FogNoLB.fog[98].server[0] rho 0.87341922521591
scalar FogNoLB.fog[98].server[0] congestionRatio 0
scalar FogNoLB.fog[98].server[0] totalJobs 580733
scalar FogNoLB.fog[98].server[0] droppedJobsQueue 15888
scalar FogNoLB.fog[98].server[0] droppedJobsTimout 0
scalar FogNoLB.fog[98].server[0] droppedJobsSLA 0
scalar FogNoLB.fog[98].server[0] droppedJobsTotal 15888
scalar FogNoLB.fog[99].dispatcher localJobs 581874
scalar FogNoLB.fog[99].dispatcher remoteJobs 0
scalar FogNoLB.fog[99].dispatcher probeQueries 0
scalar FogNoLB.fog[99].dispatcher probeAnswers 0
scalar FogNoLB.fog[99].dispatcher droppedJobsSLA 0
scalar FogNoLB.fog[99].dispatcher jobs_class_1 581874
scalar FogNoLB.fog[99].dispatcher localJobs_class_1 581874
scalar FogNoLB.fog[99].server[0] rho 0.87591367959976
scalar FogNoLB.fog[99].server[0] congestionRatio 0
scalar FogNoLB.fog[99].server[0] totalJobs 581874
scalar FogNoLB.fog[99].server[0] droppedJobsQueue 15398
scalar FogNoLB.fog[99].server[0] droppedJobsTimout 0
scalar FogNoLB.fog[99].server[0] droppedJobsSLA 0
scalar FogNoLB.fog[99].server[0] droppedJobsTotal 15398
scalar FogNoLB.sink avg_responseTime_1 0.057558906469196
scalar FogNoLB.sink p90_responseTime_1 0.014730680087
scalar FogNoLB.sink med_responseTime_1 0.014730680087
scalar FogNoLB.sink avg_delayTime_1 0
scalar FogNoLB.sink p90_delayTime_1 0
scalar FogNoLB.sink med_delayTime_1 0
scalar FogNoLB.sink avg_queuingTime_1 0.040859012117936
scalar FogNoLB.sink p90_queuingTime_1 0
scalar FogNoLB.sink med_queuingTime_1 0
scalar FogNoLB.sink avg_serviceTime_1 0.016699894351302
scalar FogNoLB.sink p90_serviceTime_1 0.01471428783
scalar FogNoLB.sink med_serviceTime_1 0.01471428783
scalar FogNoLB.sink avg_balancerTime_1 0
scalar FogNoLB.sink p90_balancerTime_1 0
scalar FogNoLB.sink med_balancerTime_1 0
scalar FogNoLB.sink avg_balancerCount_1 1
scalar FogNoLB.sink p90_balancerCount_1 1
scalar FogNoLB.sink med_balancerCount_1 1

