version 2
run Fog-mul_1-rho_08-thr_1-1-20190711-22:47:56-63254
attr configname Fog-mul_1-rho_08-thr_1
attr datetime 20190711-22:47:56
attr experiment Fog-mul_1-rho_08-thr_1
attr inifile FogQueueLen.ini
attr iterationvars ""
attr iterationvarsf ""
attr measurement ""
attr network FogNoLB
attr processid 63254
attr repetition 1
attr replication #1
attr resultdir results
attr runnumber 1
attr seedset 1
param FogNoLB.proctimeMul 1
param FogNoLB.rho 0.8
param FogNoLB.fog[*].server[*].capacity 1
param FogNoLB.nSources 100
param FogNoLB.rho 0.9
param FogNoLB.proctimeMul 1.0
param FogNoLB.source[*].appId 1
param FogNoLB.fog[*].nServers 1
param FogNoLB.fog[*].dispatcher.fanOut 1
param FogNoLB.fog[*].server[*].timeSlice -1s
param FogNoLB.fog[*].server[*].capacity 5
param FogNoLB.fog[*].server[*].fifo true
param FogNoLB.fog[*].server[*].maxServiceTime -1s

scalar FogNoLB.fog[0].dispatcher localJobs 5157
scalar FogNoLB.fog[0].dispatcher remoteJobs 0
scalar FogNoLB.fog[0].dispatcher probeQueries 0
scalar FogNoLB.fog[0].dispatcher probeAnswers 0
scalar FogNoLB.fog[0].dispatcher droppedJobsSLA 0
scalar FogNoLB.fog[0].dispatcher jobs_class_1 5157
scalar FogNoLB.fog[0].dispatcher localJobs_class_1 5157
scalar FogNoLB.fog[0].server[0] rho 0.63780838251114
scalar FogNoLB.fog[0].server[0] congestionRatio 0
scalar FogNoLB.fog[0].server[0] totalJobs 5157
scalar FogNoLB.fog[0].server[0] droppedJobsQueue 1031
scalar FogNoLB.fog[0].server[0] droppedJobsTimout 0
scalar FogNoLB.fog[0].server[0] droppedJobsSLA 0
scalar FogNoLB.fog[0].server[0] droppedJobsTotal 1031
scalar FogNoLB.fog[1].dispatcher localJobs 5249
scalar FogNoLB.fog[1].dispatcher remoteJobs 0
scalar FogNoLB.fog[1].dispatcher probeQueries 0
scalar FogNoLB.fog[1].dispatcher probeAnswers 0
scalar FogNoLB.fog[1].dispatcher droppedJobsSLA 0
scalar FogNoLB.fog[1].dispatcher jobs_class_1 5249
scalar FogNoLB.fog[1].dispatcher localJobs_class_1 5249
scalar FogNoLB.fog[1].server[0] rho 0.64046412706375
scalar FogNoLB.fog[1].server[0] congestionRatio 0
scalar FogNoLB.fog[1].server[0] totalJobs 5249
scalar FogNoLB.fog[1].server[0] droppedJobsQueue 1106
scalar FogNoLB.fog[1].server[0] droppedJobsTimout 0
scalar FogNoLB.fog[1].server[0] droppedJobsSLA 0
scalar FogNoLB.fog[1].server[0] droppedJobsTotal 1106
scalar FogNoLB.fog[2].dispatcher localJobs 5165
scalar FogNoLB.fog[2].dispatcher remoteJobs 0
scalar FogNoLB.fog[2].dispatcher probeQueries 0
scalar FogNoLB.fog[2].dispatcher probeAnswers 0
scalar FogNoLB.fog[2].dispatcher droppedJobsSLA 0
scalar FogNoLB.fog[2].dispatcher jobs_class_1 5165
scalar FogNoLB.fog[2].dispatcher localJobs_class_1 5165
scalar FogNoLB.fog[2].server[0] rho 0.64169234037399
scalar FogNoLB.fog[2].server[0] congestionRatio 0
scalar FogNoLB.fog[2].server[0] totalJobs 5165
scalar FogNoLB.fog[2].server[0] droppedJobsQueue 1014
scalar FogNoLB.fog[2].server[0] droppedJobsTimout 0
scalar FogNoLB.fog[2].server[0] droppedJobsSLA 0
scalar FogNoLB.fog[2].server[0] droppedJobsTotal 1014
scalar FogNoLB.fog[3].dispatcher localJobs 5295
scalar FogNoLB.fog[3].dispatcher remoteJobs 0
scalar FogNoLB.fog[3].dispatcher probeQueries 0
scalar FogNoLB.fog[3].dispatcher probeAnswers 0
scalar FogNoLB.fog[3].dispatcher droppedJobsSLA 0
scalar FogNoLB.fog[3].dispatcher jobs_class_1 5295
scalar FogNoLB.fog[3].dispatcher localJobs_class_1 5295
scalar FogNoLB.fog[3].server[0] rho 0.6511515378952
scalar FogNoLB.fog[3].server[0] congestionRatio 0
scalar FogNoLB.fog[3].server[0] totalJobs 5295
scalar FogNoLB.fog[3].server[0] droppedJobsQueue 1082
scalar FogNoLB.fog[3].server[0] droppedJobsTimout 0
scalar FogNoLB.fog[3].server[0] droppedJobsSLA 0
scalar FogNoLB.fog[3].server[0] droppedJobsTotal 1082
scalar FogNoLB.fog[4].dispatcher localJobs 5164
scalar FogNoLB.fog[4].dispatcher remoteJobs 0
scalar FogNoLB.fog[4].dispatcher probeQueries 0
scalar FogNoLB.fog[4].dispatcher probeAnswers 0
scalar FogNoLB.fog[4].dispatcher droppedJobsSLA 0
scalar FogNoLB.fog[4].dispatcher jobs_class_1 5164
scalar FogNoLB.fog[4].dispatcher localJobs_class_1 5164
scalar FogNoLB.fog[4].server[0] rho 0.64162653684616
scalar FogNoLB.fog[4].server[0] congestionRatio 0
scalar FogNoLB.fog[4].server[0] totalJobs 5164
scalar FogNoLB.fog[4].server[0] droppedJobsQueue 1013
scalar FogNoLB.fog[4].server[0] droppedJobsTimout 0
scalar FogNoLB.fog[4].server[0] droppedJobsSLA 0
scalar FogNoLB.fog[4].server[0] droppedJobsTotal 1013
scalar FogNoLB.fog[5].dispatcher localJobs 4992
scalar FogNoLB.fog[5].dispatcher remoteJobs 0
scalar FogNoLB.fog[5].dispatcher probeQueries 0
scalar FogNoLB.fog[5].dispatcher probeAnswers 0
scalar FogNoLB.fog[5].dispatcher droppedJobsSLA 0
scalar FogNoLB.fog[5].dispatcher jobs_class_1 4992
scalar FogNoLB.fog[5].dispatcher localJobs_class_1 4992
scalar FogNoLB.fog[5].server[0] rho 0.63076090812683
scalar FogNoLB.fog[5].server[0] congestionRatio 0
scalar FogNoLB.fog[5].server[0] totalJobs 4992
scalar FogNoLB.fog[5].server[0] droppedJobsQueue 911
scalar FogNoLB.fog[5].server[0] droppedJobsTimout 0
scalar FogNoLB.fog[5].server[0] droppedJobsSLA 0
scalar FogNoLB.fog[5].server[0] droppedJobsTotal 911
scalar FogNoLB.fog[6].dispatcher localJobs 5060
scalar FogNoLB.fog[6].dispatcher remoteJobs 0
scalar FogNoLB.fog[6].dispatcher probeQueries 0
scalar FogNoLB.fog[6].dispatcher probeAnswers 0
scalar FogNoLB.fog[6].dispatcher droppedJobsSLA 0
scalar FogNoLB.fog[6].dispatcher jobs_class_1 5060
scalar FogNoLB.fog[6].dispatcher localJobs_class_1 5060
scalar FogNoLB.fog[6].server[0] rho 0.63655084371567
scalar FogNoLB.fog[6].server[0] congestionRatio 0
scalar FogNoLB.fog[6].server[0] totalJobs 5060
scalar FogNoLB.fog[6].server[0] droppedJobsQueue 941
scalar FogNoLB.fog[6].server[0] droppedJobsTimout 0
scalar FogNoLB.fog[6].server[0] droppedJobsSLA 0
scalar FogNoLB.fog[6].server[0] droppedJobsTotal 941
scalar FogNoLB.fog[7].dispatcher localJobs 5185
scalar FogNoLB.fog[7].dispatcher remoteJobs 0
scalar FogNoLB.fog[7].dispatcher probeQueries 0
scalar FogNoLB.fog[7].dispatcher probeAnswers 0
scalar FogNoLB.fog[7].dispatcher droppedJobsSLA 0
scalar FogNoLB.fog[7].dispatcher jobs_class_1 5185
scalar FogNoLB.fog[7].dispatcher localJobs_class_1 5185
scalar FogNoLB.fog[7].server[0] rho 0.64421916007996
scalar FogNoLB.fog[7].server[0] congestionRatio 0
scalar FogNoLB.fog[7].server[0] totalJobs 5185
scalar FogNoLB.fog[7].server[0] droppedJobsQueue 1017
scalar FogNoLB.fog[7].server[0] droppedJobsTimout 0
scalar FogNoLB.fog[7].server[0] droppedJobsSLA 0
scalar FogNoLB.fog[7].server[0] droppedJobsTotal 1017
scalar FogNoLB.fog[8].dispatcher localJobs 5006
scalar FogNoLB.fog[8].dispatcher remoteJobs 0
scalar FogNoLB.fog[8].dispatcher probeQueries 0
scalar FogNoLB.fog[8].dispatcher probeAnswers 0
scalar FogNoLB.fog[8].dispatcher droppedJobsSLA 0
scalar FogNoLB.fog[8].dispatcher jobs_class_1 5006
scalar FogNoLB.fog[8].dispatcher localJobs_class_1 5006
scalar FogNoLB.fog[8].server[0] rho 0.62877613306046
scalar FogNoLB.fog[8].server[0] congestionRatio 0
scalar FogNoLB.fog[8].server[0] totalJobs 5006
scalar FogNoLB.fog[8].server[0] droppedJobsQueue 939
scalar FogNoLB.fog[8].server[0] droppedJobsTimout 0
scalar FogNoLB.fog[8].server[0] droppedJobsSLA 0
scalar FogNoLB.fog[8].server[0] droppedJobsTotal 939
scalar FogNoLB.fog[9].dispatcher localJobs 5187
scalar FogNoLB.fog[9].dispatcher remoteJobs 0
scalar FogNoLB.fog[9].dispatcher probeQueries 0
scalar FogNoLB.fog[9].dispatcher probeAnswers 0
scalar FogNoLB.fog[9].dispatcher droppedJobsSLA 0
scalar FogNoLB.fog[9].dispatcher jobs_class_1 5187
scalar FogNoLB.fog[9].dispatcher localJobs_class_1 5187
scalar FogNoLB.fog[9].server[0] rho 0.63975787162781
scalar FogNoLB.fog[9].server[0] congestionRatio 0
scalar FogNoLB.fog[9].server[0] totalJobs 5187
scalar FogNoLB.fog[9].server[0] droppedJobsQueue 1048
scalar FogNoLB.fog[9].server[0] droppedJobsTimout 0
scalar FogNoLB.fog[9].server[0] droppedJobsSLA 0
scalar FogNoLB.fog[9].server[0] droppedJobsTotal 1048
scalar FogNoLB.fog[10].dispatcher localJobs 5195
scalar FogNoLB.fog[10].dispatcher remoteJobs 0
scalar FogNoLB.fog[10].dispatcher probeQueries 0
scalar FogNoLB.fog[10].dispatcher probeAnswers 0
scalar FogNoLB.fog[10].dispatcher droppedJobsSLA 0
scalar FogNoLB.fog[10].dispatcher jobs_class_1 5195
scalar FogNoLB.fog[10].dispatcher localJobs_class_1 5195
scalar FogNoLB.fog[10].server[0] rho 0.64422631263733
scalar FogNoLB.fog[10].server[0] congestionRatio 0
scalar FogNoLB.fog[10].server[0] totalJobs 5195
scalar FogNoLB.fog[10].server[0] droppedJobsQueue 1026
scalar FogNoLB.fog[10].server[0] droppedJobsTimout 0
scalar FogNoLB.fog[10].server[0] droppedJobsSLA 0
scalar FogNoLB.fog[10].server[0] droppedJobsTotal 1026
scalar FogNoLB.fog[11].dispatcher localJobs 5054
scalar FogNoLB.fog[11].dispatcher remoteJobs 0
scalar FogNoLB.fog[11].dispatcher probeQueries 0
scalar FogNoLB.fog[11].dispatcher probeAnswers 0
scalar FogNoLB.fog[11].dispatcher droppedJobsSLA 0
scalar FogNoLB.fog[11].dispatcher jobs_class_1 5054
scalar FogNoLB.fog[11].dispatcher localJobs_class_1 5054
scalar FogNoLB.fog[11].server[0] rho 0.63631290197372
scalar FogNoLB.fog[11].server[0] congestionRatio 0
scalar FogNoLB.fog[11].server[0] totalJobs 5054
scalar FogNoLB.fog[11].server[0] droppedJobsQueue 939
scalar FogNoLB.fog[11].server[0] droppedJobsTimout 0
scalar FogNoLB.fog[11].server[0] droppedJobsSLA 0
scalar FogNoLB.fog[11].server[0] droppedJobsTotal 939
scalar FogNoLB.fog[12].dispatcher localJobs 5102
scalar FogNoLB.fog[12].dispatcher remoteJobs 0
scalar FogNoLB.fog[12].dispatcher probeQueries 0
scalar FogNoLB.fog[12].dispatcher probeAnswers 0
scalar FogNoLB.fog[12].dispatcher droppedJobsSLA 0
scalar FogNoLB.fog[12].dispatcher jobs_class_1 5102
scalar FogNoLB.fog[12].dispatcher localJobs_class_1 5102
scalar FogNoLB.fog[12].server[0] rho 0.63821226358414
scalar FogNoLB.fog[12].server[0] congestionRatio 0
scalar FogNoLB.fog[12].server[0] totalJobs 5102
scalar FogNoLB.fog[12].server[0] droppedJobsQueue 977
scalar FogNoLB.fog[12].server[0] droppedJobsTimout 0
scalar FogNoLB.fog[12].server[0] droppedJobsSLA 0
scalar FogNoLB.fog[12].server[0] droppedJobsTotal 977
scalar FogNoLB.fog[13].dispatcher localJobs 5293
scalar FogNoLB.fog[13].dispatcher remoteJobs 0
scalar FogNoLB.fog[13].dispatcher probeQueries 0
scalar FogNoLB.fog[13].dispatcher probeAnswers 0
scalar FogNoLB.fog[13].dispatcher droppedJobsSLA 0
scalar FogNoLB.fog[13].dispatcher jobs_class_1 5293
scalar FogNoLB.fog[13].dispatcher localJobs_class_1 5293
scalar FogNoLB.fog[13].server[0] rho 0.65366929769516
scalar FogNoLB.fog[13].server[0] congestionRatio 0
scalar FogNoLB.fog[13].server[0] totalJobs 5293
scalar FogNoLB.fog[13].server[0] droppedJobsQueue 1068
scalar FogNoLB.fog[13].server[0] droppedJobsTimout 0
scalar FogNoLB.fog[13].server[0] droppedJobsSLA 0
scalar FogNoLB.fog[13].server[0] droppedJobsTotal 1068
scalar FogNoLB.fog[14].dispatcher localJobs 5121
scalar FogNoLB.fog[14].dispatcher remoteJobs 0
scalar FogNoLB.fog[14].dispatcher probeQueries 0
scalar FogNoLB.fog[14].dispatcher probeAnswers 0
scalar FogNoLB.fog[14].dispatcher droppedJobsSLA 0
scalar FogNoLB.fog[14].dispatcher jobs_class_1 5121
scalar FogNoLB.fog[14].dispatcher localJobs_class_1 5121
scalar FogNoLB.fog[14].server[0] rho 0.64036864042282
scalar FogNoLB.fog[14].server[0] congestionRatio 0
scalar FogNoLB.fog[14].server[0] totalJobs 5121
scalar FogNoLB.fog[14].server[0] droppedJobsQueue 982
scalar FogNoLB.fog[14].server[0] droppedJobsTimout 0
scalar FogNoLB.fog[14].server[0] droppedJobsSLA 0
scalar FogNoLB.fog[14].server[0] droppedJobsTotal 982
scalar FogNoLB.fog[15].dispatcher localJobs 5246
scalar FogNoLB.fog[15].dispatcher remoteJobs 0
scalar FogNoLB.fog[15].dispatcher probeQueries 0
scalar FogNoLB.fog[15].dispatcher probeAnswers 0
scalar FogNoLB.fog[15].dispatcher droppedJobsSLA 0
scalar FogNoLB.fog[15].dispatcher jobs_class_1 5246
scalar FogNoLB.fog[15].dispatcher localJobs_class_1 5246
scalar FogNoLB.fog[15].server[0] rho 0.64574164152145
scalar FogNoLB.fog[15].server[0] congestionRatio 0
scalar FogNoLB.fog[15].server[0] totalJobs 5246
scalar FogNoLB.fog[15].server[0] droppedJobsQueue 1068
scalar FogNoLB.fog[15].server[0] droppedJobsTimout 0
scalar FogNoLB.fog[15].server[0] droppedJobsSLA 0
scalar FogNoLB.fog[15].server[0] droppedJobsTotal 1068
scalar FogNoLB.fog[16].dispatcher localJobs 5261
scalar FogNoLB.fog[16].dispatcher remoteJobs 0
scalar FogNoLB.fog[16].dispatcher probeQueries 0
scalar FogNoLB.fog[16].dispatcher probeAnswers 0
scalar FogNoLB.fog[16].dispatcher droppedJobsSLA 0
scalar FogNoLB.fog[16].dispatcher jobs_class_1 5261
scalar FogNoLB.fog[16].dispatcher localJobs_class_1 5261
scalar FogNoLB.fog[16].server[0] rho 0.65162354707718
scalar FogNoLB.fog[16].server[0] congestionRatio 0
scalar FogNoLB.fog[16].server[0] totalJobs 5261
scalar FogNoLB.fog[16].server[0] droppedJobsQueue 1047
scalar FogNoLB.fog[16].server[0] droppedJobsTimout 0
scalar FogNoLB.fog[16].server[0] droppedJobsSLA 0
scalar FogNoLB.fog[16].server[0] droppedJobsTotal 1047
scalar FogNoLB.fog[17].dispatcher localJobs 5103
scalar FogNoLB.fog[17].dispatcher remoteJobs 0
scalar FogNoLB.fog[17].dispatcher probeQueries 0
scalar FogNoLB.fog[17].dispatcher probeAnswers 0
scalar FogNoLB.fog[17].dispatcher droppedJobsSLA 0
scalar FogNoLB.fog[17].dispatcher jobs_class_1 5103
scalar FogNoLB.fog[17].dispatcher localJobs_class_1 5103
scalar FogNoLB.fog[17].server[0] rho 0.63906341791153
scalar FogNoLB.fog[17].server[0] congestionRatio 0
scalar FogNoLB.fog[17].server[0] totalJobs 5103
scalar FogNoLB.fog[17].server[0] droppedJobsQueue 970
scalar FogNoLB.fog[17].server[0] droppedJobsTimout 0
scalar FogNoLB.fog[17].server[0] droppedJobsSLA 0
scalar FogNoLB.fog[17].server[0] droppedJobsTotal 970
scalar FogNoLB.fog[18].dispatcher localJobs 5265
scalar FogNoLB.fog[18].dispatcher remoteJobs 0
scalar FogNoLB.fog[18].dispatcher probeQueries 0
scalar FogNoLB.fog[18].dispatcher probeAnswers 0
scalar FogNoLB.fog[18].dispatcher droppedJobsSLA 0
scalar FogNoLB.fog[18].dispatcher jobs_class_1 5265
scalar FogNoLB.fog[18].dispatcher localJobs_class_1 5265
scalar FogNoLB.fog[18].server[0] rho 0.64846563339233
scalar FogNoLB.fog[18].server[0] congestionRatio 0
scalar FogNoLB.fog[18].server[0] totalJobs 5265
scalar FogNoLB.fog[18].server[0] droppedJobsQueue 1073
scalar FogNoLB.fog[18].server[0] droppedJobsTimout 0
scalar FogNoLB.fog[18].server[0] droppedJobsSLA 0
scalar FogNoLB.fog[18].server[0] droppedJobsTotal 1073
scalar FogNoLB.fog[19].dispatcher localJobs 5218
scalar FogNoLB.fog[19].dispatcher remoteJobs 0
scalar FogNoLB.fog[19].dispatcher probeQueries 0
scalar FogNoLB.fog[19].dispatcher probeAnswers 0
scalar FogNoLB.fog[19].dispatcher droppedJobsSLA 0
scalar FogNoLB.fog[19].dispatcher jobs_class_1 5218
scalar FogNoLB.fog[19].dispatcher localJobs_class_1 5218
scalar FogNoLB.fog[19].server[0] rho 0.64585453271866
scalar FogNoLB.fog[19].server[0] congestionRatio 0
scalar FogNoLB.fog[19].server[0] totalJobs 5218
scalar FogNoLB.fog[19].server[0] droppedJobsQueue 1043
scalar FogNoLB.fog[19].server[0] droppedJobsTimout 0
scalar FogNoLB.fog[19].server[0] droppedJobsSLA 0
scalar FogNoLB.fog[19].server[0] droppedJobsTotal 1043
scalar FogNoLB.fog[20].dispatcher localJobs 5138
scalar FogNoLB.fog[20].dispatcher remoteJobs 0
scalar FogNoLB.fog[20].dispatcher probeQueries 0
scalar FogNoLB.fog[20].dispatcher probeAnswers 0
scalar FogNoLB.fog[20].dispatcher droppedJobsSLA 0
scalar FogNoLB.fog[20].dispatcher jobs_class_1 5138
scalar FogNoLB.fog[20].dispatcher localJobs_class_1 5138
scalar FogNoLB.fog[20].server[0] rho 0.64078015089035
scalar FogNoLB.fog[20].server[0] congestionRatio 0
scalar FogNoLB.fog[20].server[0] totalJobs 5138
scalar FogNoLB.fog[20].server[0] droppedJobsQueue 993
scalar FogNoLB.fog[20].server[0] droppedJobsTimout 0
scalar FogNoLB.fog[20].server[0] droppedJobsSLA 0
scalar FogNoLB.fog[20].server[0] droppedJobsTotal 993
scalar FogNoLB.fog[21].dispatcher localJobs 5145
scalar FogNoLB.fog[21].dispatcher remoteJobs 0
scalar FogNoLB.fog[21].dispatcher probeQueries 0
scalar FogNoLB.fog[21].dispatcher probeAnswers 0
scalar FogNoLB.fog[21].dispatcher droppedJobsSLA 0
scalar FogNoLB.fog[21].dispatcher jobs_class_1 5145
scalar FogNoLB.fog[21].dispatcher localJobs_class_1 5145
scalar FogNoLB.fog[21].server[0] rho 0.64393293857574
scalar FogNoLB.fog[21].server[0] congestionRatio 0
scalar FogNoLB.fog[21].server[0] totalJobs 5145
scalar FogNoLB.fog[21].server[0] droppedJobsQueue 978
scalar FogNoLB.fog[21].server[0] droppedJobsTimout 0
scalar FogNoLB.fog[21].server[0] droppedJobsSLA 0
scalar FogNoLB.fog[21].server[0] droppedJobsTotal 978
scalar FogNoLB.fog[22].dispatcher localJobs 5185
scalar FogNoLB.fog[22].dispatcher remoteJobs 0
scalar FogNoLB.fog[22].dispatcher probeQueries 0
scalar FogNoLB.fog[22].dispatcher probeAnswers 0
scalar FogNoLB.fog[22].dispatcher droppedJobsSLA 0
scalar FogNoLB.fog[22].dispatcher jobs_class_1 5185
scalar FogNoLB.fog[22].dispatcher localJobs_class_1 5185
scalar FogNoLB.fog[22].server[0] rho 0.64200276136398
scalar FogNoLB.fog[22].server[0] congestionRatio 0
scalar FogNoLB.fog[22].server[0] totalJobs 5185
scalar FogNoLB.fog[22].server[0] droppedJobsQueue 1028
scalar FogNoLB.fog[22].server[0] droppedJobsTimout 0
scalar FogNoLB.fog[22].server[0] droppedJobsSLA 0
scalar FogNoLB.fog[22].server[0] droppedJobsTotal 1028
scalar FogNoLB.fog[23].dispatcher localJobs 5239
scalar FogNoLB.fog[23].dispatcher remoteJobs 0
scalar FogNoLB.fog[23].dispatcher probeQueries 0
scalar FogNoLB.fog[23].dispatcher probeAnswers 0
scalar FogNoLB.fog[23].dispatcher droppedJobsSLA 0
scalar FogNoLB.fog[23].dispatcher jobs_class_1 5239
scalar FogNoLB.fog[23].dispatcher localJobs_class_1 5239
scalar FogNoLB.fog[23].server[0] rho 0.64800029993057
scalar FogNoLB.fog[23].server[0] congestionRatio 0
scalar FogNoLB.fog[23].server[0] totalJobs 5239
scalar FogNoLB.fog[23].server[0] droppedJobsQueue 1048
scalar FogNoLB.fog[23].server[0] droppedJobsTimout 0
scalar FogNoLB.fog[23].server[0] droppedJobsSLA 0
scalar FogNoLB.fog[23].server[0] droppedJobsTotal 1048
scalar FogNoLB.fog[24].dispatcher localJobs 5115
scalar FogNoLB.fog[24].dispatcher remoteJobs 0
scalar FogNoLB.fog[24].dispatcher probeQueries 0
scalar FogNoLB.fog[24].dispatcher probeAnswers 0
scalar FogNoLB.fog[24].dispatcher droppedJobsSLA 0
scalar FogNoLB.fog[24].dispatcher jobs_class_1 5115
scalar FogNoLB.fog[24].dispatcher localJobs_class_1 5115
scalar FogNoLB.fog[24].server[0] rho 0.63544863462448
scalar FogNoLB.fog[24].server[0] congestionRatio 0
scalar FogNoLB.fog[24].server[0] totalJobs 5115
scalar FogNoLB.fog[24].server[0] droppedJobsQueue 1006
scalar FogNoLB.fog[24].server[0] droppedJobsTimout 0
scalar FogNoLB.fog[24].server[0] droppedJobsSLA 0
scalar FogNoLB.fog[24].server[0] droppedJobsTotal 1006
scalar FogNoLB.fog[25].dispatcher localJobs 5366
scalar FogNoLB.fog[25].dispatcher remoteJobs 0
scalar FogNoLB.fog[25].dispatcher probeQueries 0
scalar FogNoLB.fog[25].dispatcher probeAnswers 0
scalar FogNoLB.fog[25].dispatcher droppedJobsSLA 0
scalar FogNoLB.fog[25].dispatcher jobs_class_1 5366
scalar FogNoLB.fog[25].dispatcher localJobs_class_1 5366
scalar FogNoLB.fog[25].server[0] rho 0.65515995025635
scalar FogNoLB.fog[25].server[0] congestionRatio 0
scalar FogNoLB.fog[25].server[0] totalJobs 5366
scalar FogNoLB.fog[25].server[0] droppedJobsQueue 1129
scalar FogNoLB.fog[25].server[0] droppedJobsTimout 0
scalar FogNoLB.fog[25].server[0] droppedJobsSLA 0
scalar FogNoLB.fog[25].server[0] droppedJobsTotal 1129
scalar FogNoLB.fog[26].dispatcher localJobs 5210
scalar FogNoLB.fog[26].dispatcher remoteJobs 0
scalar FogNoLB.fog[26].dispatcher probeQueries 0
scalar FogNoLB.fog[26].dispatcher probeAnswers 0
scalar FogNoLB.fog[26].dispatcher droppedJobsSLA 0
scalar FogNoLB.fog[26].dispatcher jobs_class_1 5210
scalar FogNoLB.fog[26].dispatcher localJobs_class_1 5210
scalar FogNoLB.fog[26].server[0] rho 0.64419615268707
scalar FogNoLB.fog[26].server[0] congestionRatio 0
scalar FogNoLB.fog[26].server[0] totalJobs 5210
scalar FogNoLB.fog[26].server[0] droppedJobsQueue 1044
scalar FogNoLB.fog[26].server[0] droppedJobsTimout 0
scalar FogNoLB.fog[26].server[0] droppedJobsSLA 0
scalar FogNoLB.fog[26].server[0] droppedJobsTotal 1044
scalar FogNoLB.fog[27].dispatcher localJobs 5161
scalar FogNoLB.fog[27].dispatcher remoteJobs 0
scalar FogNoLB.fog[27].dispatcher probeQueries 0
scalar FogNoLB.fog[27].dispatcher probeAnswers 0
scalar FogNoLB.fog[27].dispatcher droppedJobsSLA 0
scalar FogNoLB.fog[27].dispatcher jobs_class_1 5161
scalar FogNoLB.fog[27].dispatcher localJobs_class_1 5161
scalar FogNoLB.fog[27].server[0] rho 0.63775807619095
scalar FogNoLB.fog[27].server[0] congestionRatio 0
scalar FogNoLB.fog[27].server[0] totalJobs 5161
scalar FogNoLB.fog[27].server[0] droppedJobsQueue 1038
scalar FogNoLB.fog[27].server[0] droppedJobsTimout 0
scalar FogNoLB.fog[27].server[0] droppedJobsSLA 0
scalar FogNoLB.fog[27].server[0] droppedJobsTotal 1038
scalar FogNoLB.fog[28].dispatcher localJobs 5231
scalar FogNoLB.fog[28].dispatcher remoteJobs 0
scalar FogNoLB.fog[28].dispatcher probeQueries 0
scalar FogNoLB.fog[28].dispatcher probeAnswers 0
scalar FogNoLB.fog[28].dispatcher droppedJobsSLA 0
scalar FogNoLB.fog[28].dispatcher jobs_class_1 5231
scalar FogNoLB.fog[28].dispatcher localJobs_class_1 5231
scalar FogNoLB.fog[28].server[0] rho 0.64626574516296
scalar FogNoLB.fog[28].server[0] congestionRatio 0
scalar FogNoLB.fog[28].server[0] totalJobs 5231
scalar FogNoLB.fog[28].server[0] droppedJobsQueue 1051
scalar FogNoLB.fog[28].server[0] droppedJobsTimout 0
scalar FogNoLB.fog[28].server[0] droppedJobsSLA 0
scalar FogNoLB.fog[28].server[0] droppedJobsTotal 1051
scalar FogNoLB.fog[29].dispatcher localJobs 5166
scalar FogNoLB.fog[29].dispatcher remoteJobs 0
scalar FogNoLB.fog[29].dispatcher probeQueries 0
scalar FogNoLB.fog[29].dispatcher probeAnswers 0
scalar FogNoLB.fog[29].dispatcher droppedJobsSLA 0
scalar FogNoLB.fog[29].dispatcher jobs_class_1 5166
scalar FogNoLB.fog[29].dispatcher localJobs_class_1 5166
scalar FogNoLB.fog[29].server[0] rho 0.63979423046112
scalar FogNoLB.fog[29].server[0] congestionRatio 0
scalar FogNoLB.fog[29].server[0] totalJobs 5166
scalar FogNoLB.fog[29].server[0] droppedJobsQueue 1029
scalar FogNoLB.fog[29].server[0] droppedJobsTimout 0
scalar FogNoLB.fog[29].server[0] droppedJobsSLA 0
scalar FogNoLB.fog[29].server[0] droppedJobsTotal 1029
scalar FogNoLB.fog[30].dispatcher localJobs 5228
scalar FogNoLB.fog[30].dispatcher remoteJobs 0
scalar FogNoLB.fog[30].dispatcher probeQueries 0
scalar FogNoLB.fog[30].dispatcher probeAnswers 0
scalar FogNoLB.fog[30].dispatcher droppedJobsSLA 0
scalar FogNoLB.fog[30].dispatcher jobs_class_1 5228
scalar FogNoLB.fog[30].dispatcher localJobs_class_1 5228
scalar FogNoLB.fog[30].server[0] rho 0.64288264513016
scalar FogNoLB.fog[30].server[0] congestionRatio 0
scalar FogNoLB.fog[30].server[0] totalJobs 5228
scalar FogNoLB.fog[30].server[0] droppedJobsQueue 1067
scalar FogNoLB.fog[30].server[0] droppedJobsTimout 0
scalar FogNoLB.fog[30].server[0] droppedJobsSLA 0
scalar FogNoLB.fog[30].server[0] droppedJobsTotal 1067
scalar FogNoLB.fog[31].dispatcher localJobs 5081
scalar FogNoLB.fog[31].dispatcher remoteJobs 0
scalar FogNoLB.fog[31].dispatcher probeQueries 0
scalar FogNoLB.fog[31].dispatcher probeAnswers 0
scalar FogNoLB.fog[31].dispatcher droppedJobsSLA 0
scalar FogNoLB.fog[31].dispatcher jobs_class_1 5081
scalar FogNoLB.fog[31].dispatcher localJobs_class_1 5081
scalar FogNoLB.fog[31].server[0] rho 0.62803930044174
scalar FogNoLB.fog[31].server[0] congestionRatio 0
scalar FogNoLB.fog[31].server[0] totalJobs 5081
scalar FogNoLB.fog[31].server[0] droppedJobsQueue 1020
scalar FogNoLB.fog[31].server[0] droppedJobsTimout 0
scalar FogNoLB.fog[31].server[0] droppedJobsSLA 0
scalar FogNoLB.fog[31].server[0] droppedJobsTotal 1020
scalar FogNoLB.fog[32].dispatcher localJobs 5151
scalar FogNoLB.fog[32].dispatcher remoteJobs 0
scalar FogNoLB.fog[32].dispatcher probeQueries 0
scalar FogNoLB.fog[32].dispatcher probeAnswers 0
scalar FogNoLB.fog[32].dispatcher droppedJobsSLA 0
scalar FogNoLB.fog[32].dispatcher jobs_class_1 5151
scalar FogNoLB.fog[32].dispatcher localJobs_class_1 5151
scalar FogNoLB.fog[32].server[0] rho 0.6434018611908
scalar FogNoLB.fog[32].server[0] congestionRatio 0
scalar FogNoLB.fog[32].server[0] totalJobs 5151
scalar FogNoLB.fog[32].server[0] droppedJobsQueue 989
scalar FogNoLB.fog[32].server[0] droppedJobsTimout 0
scalar FogNoLB.fog[32].server[0] droppedJobsSLA 0
scalar FogNoLB.fog[32].server[0] droppedJobsTotal 989
scalar FogNoLB.fog[33].dispatcher localJobs 5214
scalar FogNoLB.fog[33].dispatcher remoteJobs 0
scalar FogNoLB.fog[33].dispatcher probeQueries 0
scalar FogNoLB.fog[33].dispatcher probeAnswers 0
scalar FogNoLB.fog[33].dispatcher droppedJobsSLA 0
scalar FogNoLB.fog[33].dispatcher jobs_class_1 5214
scalar FogNoLB.fog[33].dispatcher localJobs_class_1 5214
scalar FogNoLB.fog[33].server[0] rho 0.64382135868073
scalar FogNoLB.fog[33].server[0] congestionRatio 0
scalar FogNoLB.fog[33].server[0] totalJobs 5214
scalar FogNoLB.fog[33].server[0] droppedJobsQueue 1051
scalar FogNoLB.fog[33].server[0] droppedJobsTimout 0
scalar FogNoLB.fog[33].server[0] droppedJobsSLA 0
scalar FogNoLB.fog[33].server[0] droppedJobsTotal 1051
scalar FogNoLB.fog[34].dispatcher localJobs 5199
scalar FogNoLB.fog[34].dispatcher remoteJobs 0
scalar FogNoLB.fog[34].dispatcher probeQueries 0
scalar FogNoLB.fog[34].dispatcher probeAnswers 0
scalar FogNoLB.fog[34].dispatcher droppedJobsSLA 0
scalar FogNoLB.fog[34].dispatcher jobs_class_1 5199
scalar FogNoLB.fog[34].dispatcher localJobs_class_1 5199
scalar FogNoLB.fog[34].server[0] rho 0.64273148775101
scalar FogNoLB.fog[34].server[0] congestionRatio 0
scalar FogNoLB.fog[34].server[0] totalJobs 5199
scalar FogNoLB.fog[34].server[0] droppedJobsQueue 1040
scalar FogNoLB.fog[34].server[0] droppedJobsTimout 0
scalar FogNoLB.fog[34].server[0] droppedJobsSLA 0
scalar FogNoLB.fog[34].server[0] droppedJobsTotal 1040
scalar FogNoLB.fog[35].dispatcher localJobs 5246
scalar FogNoLB.fog[35].dispatcher remoteJobs 0
scalar FogNoLB.fog[35].dispatcher probeQueries 0
scalar FogNoLB.fog[35].dispatcher probeAnswers 0
scalar FogNoLB.fog[35].dispatcher droppedJobsSLA 0
scalar FogNoLB.fog[35].dispatcher jobs_class_1 5246
scalar FogNoLB.fog[35].dispatcher localJobs_class_1 5246
scalar FogNoLB.fog[35].server[0] rho 0.64838272333145
scalar FogNoLB.fog[35].server[0] congestionRatio 0
scalar FogNoLB.fog[35].server[0] totalJobs 5246
scalar FogNoLB.fog[35].server[0] droppedJobsQueue 1051
scalar FogNoLB.fog[35].server[0] droppedJobsTimout 0
scalar FogNoLB.fog[35].server[0] droppedJobsSLA 0
scalar FogNoLB.fog[35].server[0] droppedJobsTotal 1051
scalar FogNoLB.fog[36].dispatcher localJobs 5198
scalar FogNoLB.fog[36].dispatcher remoteJobs 0
scalar FogNoLB.fog[36].dispatcher probeQueries 0
scalar FogNoLB.fog[36].dispatcher probeAnswers 0
scalar FogNoLB.fog[36].dispatcher droppedJobsSLA 0
scalar FogNoLB.fog[36].dispatcher jobs_class_1 5198
scalar FogNoLB.fog[36].dispatcher localJobs_class_1 5198
scalar FogNoLB.fog[36].server[0] rho 0.63936507701874
scalar FogNoLB.fog[36].server[0] congestionRatio 0
scalar FogNoLB.fog[36].server[0] totalJobs 5198
scalar FogNoLB.fog[36].server[0] droppedJobsQueue 1064
scalar FogNoLB.fog[36].server[0] droppedJobsTimout 0
scalar FogNoLB.fog[36].server[0] droppedJobsSLA 0
scalar FogNoLB.fog[36].server[0] droppedJobsTotal 1064
scalar FogNoLB.fog[37].dispatcher localJobs 5030
scalar FogNoLB.fog[37].dispatcher remoteJobs 0
scalar FogNoLB.fog[37].dispatcher probeQueries 0
scalar FogNoLB.fog[37].dispatcher probeAnswers 0
scalar FogNoLB.fog[37].dispatcher droppedJobsSLA 0
scalar FogNoLB.fog[37].dispatcher jobs_class_1 5030
scalar FogNoLB.fog[37].dispatcher localJobs_class_1 5030
scalar FogNoLB.fog[37].server[0] rho 0.62949854135513
scalar FogNoLB.fog[37].server[0] congestionRatio 0
scalar FogNoLB.fog[37].server[0] totalJobs 5030
scalar FogNoLB.fog[37].server[0] droppedJobsQueue 958
scalar FogNoLB.fog[37].server[0] droppedJobsTimout 0
scalar FogNoLB.fog[37].server[0] droppedJobsSLA 0
scalar FogNoLB.fog[37].server[0] droppedJobsTotal 958
scalar FogNoLB.fog[38].dispatcher localJobs 5300
scalar FogNoLB.fog[38].dispatcher remoteJobs 0
scalar FogNoLB.fog[38].dispatcher probeQueries 0
scalar FogNoLB.fog[38].dispatcher probeAnswers 0
scalar FogNoLB.fog[38].dispatcher droppedJobsSLA 0
scalar FogNoLB.fog[38].dispatcher jobs_class_1 5300
scalar FogNoLB.fog[38].dispatcher localJobs_class_1 5300
scalar FogNoLB.fog[38].server[0] rho 0.64730399847031
scalar FogNoLB.fog[38].server[0] congestionRatio 0
scalar FogNoLB.fog[38].server[0] totalJobs 5300
scalar FogNoLB.fog[38].server[0] droppedJobsQueue 1112
scalar FogNoLB.fog[38].server[0] droppedJobsTimout 0
scalar FogNoLB.fog[38].server[0] droppedJobsSLA 0
scalar FogNoLB.fog[38].server[0] droppedJobsTotal 1112
scalar FogNoLB.fog[39].dispatcher localJobs 5254
scalar FogNoLB.fog[39].dispatcher remoteJobs 0
scalar FogNoLB.fog[39].dispatcher probeQueries 0
scalar FogNoLB.fog[39].dispatcher probeAnswers 0
scalar FogNoLB.fog[39].dispatcher droppedJobsSLA 0
scalar FogNoLB.fog[39].dispatcher jobs_class_1 5254
scalar FogNoLB.fog[39].dispatcher localJobs_class_1 5254
scalar FogNoLB.fog[39].server[0] rho 0.650181889534
scalar FogNoLB.fog[39].server[0] congestionRatio 0
scalar FogNoLB.fog[39].server[0] totalJobs 5254
scalar FogNoLB.fog[39].server[0] droppedJobsQueue 1047
scalar FogNoLB.fog[39].server[0] droppedJobsTimout 0
scalar FogNoLB.fog[39].server[0] droppedJobsSLA 0
scalar FogNoLB.fog[39].server[0] droppedJobsTotal 1047
scalar FogNoLB.fog[40].dispatcher localJobs 5340
scalar FogNoLB.fog[40].dispatcher remoteJobs 0
scalar FogNoLB.fog[40].dispatcher probeQueries 0
scalar FogNoLB.fog[40].dispatcher probeAnswers 0
scalar FogNoLB.fog[40].dispatcher droppedJobsSLA 0
scalar FogNoLB.fog[40].dispatcher jobs_class_1 5340
scalar FogNoLB.fog[40].dispatcher localJobs_class_1 5340
scalar FogNoLB.fog[40].server[0] rho 0.64912438392639
scalar FogNoLB.fog[40].server[0] congestionRatio 0
scalar FogNoLB.fog[40].server[0] totalJobs 5340
scalar FogNoLB.fog[40].server[0] droppedJobsQueue 1143
scalar FogNoLB.fog[40].server[0] droppedJobsTimout 0
scalar FogNoLB.fog[40].server[0] droppedJobsSLA 0
scalar FogNoLB.fog[40].server[0] droppedJobsTotal 1143
scalar FogNoLB.fog[41].dispatcher localJobs 5210
scalar FogNoLB.fog[41].dispatcher remoteJobs 0
scalar FogNoLB.fog[41].dispatcher probeQueries 0
scalar FogNoLB.fog[41].dispatcher probeAnswers 0
scalar FogNoLB.fog[41].dispatcher droppedJobsSLA 0
scalar FogNoLB.fog[41].dispatcher jobs_class_1 5210
scalar FogNoLB.fog[41].dispatcher localJobs_class_1 5210
scalar FogNoLB.fog[41].server[0] rho 0.64132660627365
scalar FogNoLB.fog[41].server[0] congestionRatio 0
scalar FogNoLB.fog[41].server[0] totalJobs 5210
scalar FogNoLB.fog[41].server[0] droppedJobsQueue 1060
scalar FogNoLB.fog[41].server[0] droppedJobsTimout 0
scalar FogNoLB.fog[41].server[0] droppedJobsSLA 0
scalar FogNoLB.fog[41].server[0] droppedJobsTotal 1060
scalar FogNoLB.fog[42].dispatcher localJobs 5131
scalar FogNoLB.fog[42].dispatcher remoteJobs 0
scalar FogNoLB.fog[42].dispatcher probeQueries 0
scalar FogNoLB.fog[42].dispatcher probeAnswers 0
scalar FogNoLB.fog[42].dispatcher droppedJobsSLA 0
scalar FogNoLB.fog[42].dispatcher jobs_class_1 5131
scalar FogNoLB.fog[42].dispatcher localJobs_class_1 5131
scalar FogNoLB.fog[42].server[0] rho 0.63696831464767
scalar FogNoLB.fog[42].server[0] congestionRatio 0
scalar FogNoLB.fog[42].server[0] totalJobs 5131
scalar FogNoLB.fog[42].server[0] droppedJobsQueue 1010
scalar FogNoLB.fog[42].server[0] droppedJobsTimout 0
scalar FogNoLB.fog[42].server[0] droppedJobsSLA 0
scalar FogNoLB.fog[42].server[0] droppedJobsTotal 1010
scalar FogNoLB.fog[43].dispatcher localJobs 5280
scalar FogNoLB.fog[43].dispatcher remoteJobs 0
scalar FogNoLB.fog[43].dispatcher probeQueries 0
scalar FogNoLB.fog[43].dispatcher probeAnswers 0
scalar FogNoLB.fog[43].dispatcher droppedJobsSLA 0
scalar FogNoLB.fog[43].dispatcher jobs_class_1 5280
scalar FogNoLB.fog[43].dispatcher localJobs_class_1 5280
scalar FogNoLB.fog[43].server[0] rho 0.64764934778214
scalar FogNoLB.fog[43].server[0] congestionRatio 0
scalar FogNoLB.fog[43].server[0] totalJobs 5280
scalar FogNoLB.fog[43].server[0] droppedJobsQueue 1092
scalar FogNoLB.fog[43].server[0] droppedJobsTimout 0
scalar FogNoLB.fog[43].server[0] droppedJobsSLA 0
scalar FogNoLB.fog[43].server[0] droppedJobsTotal 1092
scalar FogNoLB.fog[44].dispatcher localJobs 5127
scalar FogNoLB.fog[44].dispatcher remoteJobs 0
scalar FogNoLB.fog[44].dispatcher probeQueries 0
scalar FogNoLB.fog[44].dispatcher probeAnswers 0
scalar FogNoLB.fog[44].dispatcher droppedJobsSLA 0
scalar FogNoLB.fog[44].dispatcher jobs_class_1 5127
scalar FogNoLB.fog[44].dispatcher localJobs_class_1 5127
scalar FogNoLB.fog[44].server[0] rho 0.63528400659561
scalar FogNoLB.fog[44].server[0] congestionRatio 0
scalar FogNoLB.fog[44].server[0] totalJobs 5127
scalar FogNoLB.fog[44].server[0] droppedJobsQueue 1018
scalar FogNoLB.fog[44].server[0] droppedJobsTimout 0
scalar FogNoLB.fog[44].server[0] droppedJobsSLA 0
scalar FogNoLB.fog[44].server[0] droppedJobsTotal 1018
scalar FogNoLB.fog[45].dispatcher localJobs 5064
scalar FogNoLB.fog[45].dispatcher remoteJobs 0
scalar FogNoLB.fog[45].dispatcher probeQueries 0
scalar FogNoLB.fog[45].dispatcher probeAnswers 0
scalar FogNoLB.fog[45].dispatcher droppedJobsSLA 0
scalar FogNoLB.fog[45].dispatcher jobs_class_1 5064
scalar FogNoLB.fog[45].dispatcher localJobs_class_1 5064
scalar FogNoLB.fog[45].server[0] rho 0.63648968935013
scalar FogNoLB.fog[45].server[0] congestionRatio 0
scalar FogNoLB.fog[45].server[0] totalJobs 5064
scalar FogNoLB.fog[45].server[0] droppedJobsQueue 946
scalar FogNoLB.fog[45].server[0] droppedJobsTimout 0
scalar FogNoLB.fog[45].server[0] droppedJobsSLA 0
scalar FogNoLB.fog[45].server[0] droppedJobsTotal 946
scalar FogNoLB.fog[46].dispatcher localJobs 5083
scalar FogNoLB.fog[46].dispatcher remoteJobs 0
scalar FogNoLB.fog[46].dispatcher probeQueries 0
scalar FogNoLB.fog[46].dispatcher probeAnswers 0
scalar FogNoLB.fog[46].dispatcher droppedJobsSLA 0
scalar FogNoLB.fog[46].dispatcher jobs_class_1 5083
scalar FogNoLB.fog[46].dispatcher localJobs_class_1 5083
scalar FogNoLB.fog[46].server[0] rho 0.63397741317749
scalar FogNoLB.fog[46].server[0] congestionRatio 0
scalar FogNoLB.fog[46].server[0] totalJobs 5083
scalar FogNoLB.fog[46].server[0] droppedJobsQueue 980
scalar FogNoLB.fog[46].server[0] droppedJobsTimout 0
scalar FogNoLB.fog[46].server[0] droppedJobsSLA 0
scalar FogNoLB.fog[46].server[0] droppedJobsTotal 980
scalar FogNoLB.fog[47].dispatcher localJobs 5179
scalar FogNoLB.fog[47].dispatcher remoteJobs 0
scalar FogNoLB.fog[47].dispatcher probeQueries 0
scalar FogNoLB.fog[47].dispatcher probeAnswers 0
scalar FogNoLB.fog[47].dispatcher droppedJobsSLA 0
scalar FogNoLB.fog[47].dispatcher jobs_class_1 5179
scalar FogNoLB.fog[47].dispatcher localJobs_class_1 5179
scalar FogNoLB.fog[47].server[0] rho 0.63679963350296
scalar FogNoLB.fog[47].server[0] congestionRatio 0
scalar FogNoLB.fog[47].server[0] totalJobs 5179
scalar FogNoLB.fog[47].server[0] droppedJobsQueue 1062
scalar FogNoLB.fog[47].server[0] droppedJobsTimout 0
scalar FogNoLB.fog[47].server[0] droppedJobsSLA 0
scalar FogNoLB.fog[47].server[0] droppedJobsTotal 1062
scalar FogNoLB.fog[48].dispatcher localJobs 5044
scalar FogNoLB.fog[48].dispatcher remoteJobs 0
scalar FogNoLB.fog[48].dispatcher probeQueries 0
scalar FogNoLB.fog[48].dispatcher probeAnswers 0
scalar FogNoLB.fog[48].dispatcher droppedJobsSLA 0
scalar FogNoLB.fog[48].dispatcher jobs_class_1 5044
scalar FogNoLB.fog[48].dispatcher localJobs_class_1 5044
scalar FogNoLB.fog[48].server[0] rho 0.63250488042831
scalar FogNoLB.fog[48].server[0] congestionRatio 0
scalar FogNoLB.fog[48].server[0] totalJobs 5044
scalar FogNoLB.fog[48].server[0] droppedJobsQueue 951
scalar FogNoLB.fog[48].server[0] droppedJobsTimout 0
scalar FogNoLB.fog[48].server[0] droppedJobsSLA 0
scalar FogNoLB.fog[48].server[0] droppedJobsTotal 951
scalar FogNoLB.fog[49].dispatcher localJobs 5301
scalar FogNoLB.fog[49].dispatcher remoteJobs 0
scalar FogNoLB.fog[49].dispatcher probeQueries 0
scalar FogNoLB.fog[49].dispatcher probeAnswers 0
scalar FogNoLB.fog[49].dispatcher droppedJobsSLA 0
scalar FogNoLB.fog[49].dispatcher jobs_class_1 5301
scalar FogNoLB.fog[49].dispatcher localJobs_class_1 5301
scalar FogNoLB.fog[49].server[0] rho 0.64826554059982
scalar FogNoLB.fog[49].server[0] congestionRatio 0
scalar FogNoLB.fog[49].server[0] totalJobs 5301
scalar FogNoLB.fog[49].server[0] droppedJobsQueue 1108
scalar FogNoLB.fog[49].server[0] droppedJobsTimout 0
scalar FogNoLB.fog[49].server[0] droppedJobsSLA 0
scalar FogNoLB.fog[49].server[0] droppedJobsTotal 1108
scalar FogNoLB.fog[50].dispatcher localJobs 5109
scalar FogNoLB.fog[50].dispatcher remoteJobs 0
scalar FogNoLB.fog[50].dispatcher probeQueries 0
scalar FogNoLB.fog[50].dispatcher probeAnswers 0
scalar FogNoLB.fog[50].dispatcher droppedJobsSLA 0
scalar FogNoLB.fog[50].dispatcher jobs_class_1 5109
scalar FogNoLB.fog[50].dispatcher localJobs_class_1 5109
scalar FogNoLB.fog[50].server[0] rho 0.63366341590881
scalar FogNoLB.fog[50].server[0] congestionRatio 0
scalar FogNoLB.fog[50].server[0] totalJobs 5109
scalar FogNoLB.fog[50].server[0] droppedJobsQueue 1011
scalar FogNoLB.fog[50].server[0] droppedJobsTimout 0
scalar FogNoLB.fog[50].server[0] droppedJobsSLA 0
scalar FogNoLB.fog[50].server[0] droppedJobsTotal 1011
scalar FogNoLB.fog[51].dispatcher localJobs 5164
scalar FogNoLB.fog[51].dispatcher remoteJobs 0
scalar FogNoLB.fog[51].dispatcher probeQueries 0
scalar FogNoLB.fog[51].dispatcher probeAnswers 0
scalar FogNoLB.fog[51].dispatcher droppedJobsSLA 0
scalar FogNoLB.fog[51].dispatcher jobs_class_1 5164
scalar FogNoLB.fog[51].dispatcher localJobs_class_1 5164
scalar FogNoLB.fog[51].server[0] rho 0.63715595006943
scalar FogNoLB.fog[51].server[0] congestionRatio 0
scalar FogNoLB.fog[51].server[0] totalJobs 5164
scalar FogNoLB.fog[51].server[0] droppedJobsQueue 1046
scalar FogNoLB.fog[51].server[0] droppedJobsTimout 0
scalar FogNoLB.fog[51].server[0] droppedJobsSLA 0
scalar FogNoLB.fog[51].server[0] droppedJobsTotal 1046
scalar FogNoLB.fog[52].dispatcher localJobs 5191
scalar FogNoLB.fog[52].dispatcher remoteJobs 0
scalar FogNoLB.fog[52].dispatcher probeQueries 0
scalar FogNoLB.fog[52].dispatcher probeAnswers 0
scalar FogNoLB.fog[52].dispatcher droppedJobsSLA 0
scalar FogNoLB.fog[52].dispatcher jobs_class_1 5191
scalar FogNoLB.fog[52].dispatcher localJobs_class_1 5191
scalar FogNoLB.fog[52].server[0] rho 0.64027446508408
scalar FogNoLB.fog[52].server[0] congestionRatio 0
scalar FogNoLB.fog[52].server[0] totalJobs 5191
scalar FogNoLB.fog[52].server[0] droppedJobsQueue 1048
scalar FogNoLB.fog[52].server[0] droppedJobsTimout 0
scalar FogNoLB.fog[52].server[0] droppedJobsSLA 0
scalar FogNoLB.fog[52].server[0] droppedJobsTotal 1048
scalar FogNoLB.fog[53].dispatcher localJobs 5312
scalar FogNoLB.fog[53].dispatcher remoteJobs 0
scalar FogNoLB.fog[53].dispatcher probeQueries 0
scalar FogNoLB.fog[53].dispatcher probeAnswers 0
scalar FogNoLB.fog[53].dispatcher droppedJobsSLA 0
scalar FogNoLB.fog[53].dispatcher jobs_class_1 5312
scalar FogNoLB.fog[53].dispatcher localJobs_class_1 5312
scalar FogNoLB.fog[53].server[0] rho 0.65161681175232
scalar FogNoLB.fog[53].server[0] congestionRatio 0
scalar FogNoLB.fog[53].server[0] totalJobs 5312
scalar FogNoLB.fog[53].server[0] droppedJobsQueue 1099
scalar FogNoLB.fog[53].server[0] droppedJobsTimout 0
scalar FogNoLB.fog[53].server[0] droppedJobsSLA 0
scalar FogNoLB.fog[53].server[0] droppedJobsTotal 1099
scalar FogNoLB.fog[54].dispatcher localJobs 5196
scalar FogNoLB.fog[54].dispatcher remoteJobs 0
scalar FogNoLB.fog[54].dispatcher probeQueries 0
scalar FogNoLB.fog[54].dispatcher probeAnswers 0
scalar FogNoLB.fog[54].dispatcher droppedJobsSLA 0
scalar FogNoLB.fog[54].dispatcher jobs_class_1 5196
scalar FogNoLB.fog[54].dispatcher localJobs_class_1 5196
scalar FogNoLB.fog[54].server[0] rho 0.64577287435532
scalar FogNoLB.fog[54].server[0] congestionRatio 0
scalar FogNoLB.fog[54].server[0] totalJobs 5196
scalar FogNoLB.fog[54].server[0] droppedJobsQueue 1021
scalar FogNoLB.fog[54].server[0] droppedJobsTimout 0
scalar FogNoLB.fog[54].server[0] droppedJobsSLA 0
scalar FogNoLB.fog[54].server[0] droppedJobsTotal 1021
scalar FogNoLB.fog[55].dispatcher localJobs 5171
scalar FogNoLB.fog[55].dispatcher remoteJobs 0
scalar FogNoLB.fog[55].dispatcher probeQueries 0
scalar FogNoLB.fog[55].dispatcher probeAnswers 0
scalar FogNoLB.fog[55].dispatcher droppedJobsSLA 0
scalar FogNoLB.fog[55].dispatcher jobs_class_1 5171
scalar FogNoLB.fog[55].dispatcher localJobs_class_1 5171
scalar FogNoLB.fog[55].server[0] rho 0.63839739561081
scalar FogNoLB.fog[55].server[0] congestionRatio 0
scalar FogNoLB.fog[55].server[0] totalJobs 5171
scalar FogNoLB.fog[55].server[0] droppedJobsQueue 1041
scalar FogNoLB.fog[55].server[0] droppedJobsTimout 0
scalar FogNoLB.fog[55].server[0] droppedJobsSLA 0
scalar FogNoLB.fog[55].server[0] droppedJobsTotal 1041
scalar FogNoLB.fog[56].dispatcher localJobs 5094
scalar FogNoLB.fog[56].dispatcher remoteJobs 0
scalar FogNoLB.fog[56].dispatcher probeQueries 0
scalar FogNoLB.fog[56].dispatcher probeAnswers 0
scalar FogNoLB.fog[56].dispatcher droppedJobsSLA 0
scalar FogNoLB.fog[56].dispatcher jobs_class_1 5094
scalar FogNoLB.fog[56].dispatcher localJobs_class_1 5094
scalar FogNoLB.fog[56].server[0] rho 0.63519412279129
scalar FogNoLB.fog[56].server[0] congestionRatio 0
scalar FogNoLB.fog[56].server[0] totalJobs 5094
scalar FogNoLB.fog[56].server[0] droppedJobsQueue 986
scalar FogNoLB.fog[56].server[0] droppedJobsTimout 0
scalar FogNoLB.fog[56].server[0] droppedJobsSLA 0
scalar FogNoLB.fog[56].server[0] droppedJobsTotal 986
scalar FogNoLB.fog[57].dispatcher localJobs 5098
scalar FogNoLB.fog[57].dispatcher remoteJobs 0
scalar FogNoLB.fog[57].dispatcher probeQueries 0
scalar FogNoLB.fog[57].dispatcher probeAnswers 0
scalar FogNoLB.fog[57].dispatcher droppedJobsSLA 0
scalar FogNoLB.fog[57].dispatcher jobs_class_1 5098
scalar FogNoLB.fog[57].dispatcher localJobs_class_1 5098
scalar FogNoLB.fog[57].server[0] rho 0.63236713409424
scalar FogNoLB.fog[57].server[0] congestionRatio 0
scalar FogNoLB.fog[57].server[0] totalJobs 5098
scalar FogNoLB.fog[57].server[0] droppedJobsQueue 1007
scalar FogNoLB.fog[57].server[0] droppedJobsTimout 0
scalar FogNoLB.fog[57].server[0] droppedJobsSLA 0
scalar FogNoLB.fog[57].server[0] droppedJobsTotal 1007
scalar FogNoLB.fog[58].dispatcher localJobs 5162
scalar FogNoLB.fog[58].dispatcher remoteJobs 0
scalar FogNoLB.fog[58].dispatcher probeQueries 0
scalar FogNoLB.fog[58].dispatcher probeAnswers 0
scalar FogNoLB.fog[58].dispatcher droppedJobsSLA 0
scalar FogNoLB.fog[58].dispatcher jobs_class_1 5162
scalar FogNoLB.fog[58].dispatcher localJobs_class_1 5162
scalar FogNoLB.fog[58].server[0] rho 0.63961243629456
scalar FogNoLB.fog[58].server[0] congestionRatio 0
scalar FogNoLB.fog[58].server[0] totalJobs 5162
scalar FogNoLB.fog[58].server[0] droppedJobsQueue 1024
scalar FogNoLB.fog[58].server[0] droppedJobsTimout 0
scalar FogNoLB.fog[58].server[0] droppedJobsSLA 0
scalar FogNoLB.fog[58].server[0] droppedJobsTotal 1024
scalar FogNoLB.fog[59].dispatcher localJobs 5162
scalar FogNoLB.fog[59].dispatcher remoteJobs 0
scalar FogNoLB.fog[59].dispatcher probeQueries 0
scalar FogNoLB.fog[59].dispatcher probeAnswers 0
scalar FogNoLB.fog[59].dispatcher droppedJobsSLA 0
scalar FogNoLB.fog[59].dispatcher jobs_class_1 5162
scalar FogNoLB.fog[59].dispatcher localJobs_class_1 5162
scalar FogNoLB.fog[59].server[0] rho 0.6363782286644
scalar FogNoLB.fog[59].server[0] congestionRatio 0
scalar FogNoLB.fog[59].server[0] totalJobs 5162
scalar FogNoLB.fog[59].server[0] droppedJobsQueue 1046
scalar FogNoLB.fog[59].server[0] droppedJobsTimout 0
scalar FogNoLB.fog[59].server[0] droppedJobsSLA 0
scalar FogNoLB.fog[59].server[0] droppedJobsTotal 1046
scalar FogNoLB.fog[60].dispatcher localJobs 5073
scalar FogNoLB.fog[60].dispatcher remoteJobs 0
scalar FogNoLB.fog[60].dispatcher probeQueries 0
scalar FogNoLB.fog[60].dispatcher probeAnswers 0
scalar FogNoLB.fog[60].dispatcher droppedJobsSLA 0
scalar FogNoLB.fog[60].dispatcher jobs_class_1 5073
scalar FogNoLB.fog[60].dispatcher localJobs_class_1 5073
scalar FogNoLB.fog[60].server[0] rho 0.63078731298447
scalar FogNoLB.fog[60].server[0] congestionRatio 0
scalar FogNoLB.fog[60].server[0] totalJobs 5073
scalar FogNoLB.fog[60].server[0] droppedJobsQueue 994
scalar FogNoLB.fog[60].server[0] droppedJobsTimout 0
scalar FogNoLB.fog[60].server[0] droppedJobsSLA 0
scalar FogNoLB.fog[60].server[0] droppedJobsTotal 994
scalar FogNoLB.fog[61].dispatcher localJobs 5172
scalar FogNoLB.fog[61].dispatcher remoteJobs 0
scalar FogNoLB.fog[61].dispatcher probeQueries 0
scalar FogNoLB.fog[61].dispatcher probeAnswers 0
scalar FogNoLB.fog[61].dispatcher droppedJobsSLA 0
scalar FogNoLB.fog[61].dispatcher jobs_class_1 5172
scalar FogNoLB.fog[61].dispatcher localJobs_class_1 5172
scalar FogNoLB.fog[61].server[0] rho 0.64031863212585
scalar FogNoLB.fog[61].server[0] congestionRatio 0
scalar FogNoLB.fog[61].server[0] totalJobs 5172
scalar FogNoLB.fog[61].server[0] droppedJobsQueue 1029
scalar FogNoLB.fog[61].server[0] droppedJobsTimout 0
scalar FogNoLB.fog[61].server[0] droppedJobsSLA 0
scalar FogNoLB.fog[61].server[0] droppedJobsTotal 1029
scalar FogNoLB.fog[62].dispatcher localJobs 5216
scalar FogNoLB.fog[62].dispatcher remoteJobs 0
scalar FogNoLB.fog[62].dispatcher probeQueries 0
scalar FogNoLB.fog[62].dispatcher probeAnswers 0
scalar FogNoLB.fog[62].dispatcher droppedJobsSLA 0
scalar FogNoLB.fog[62].dispatcher jobs_class_1 5216
scalar FogNoLB.fog[62].dispatcher localJobs_class_1 5216
scalar FogNoLB.fog[62].server[0] rho 0.64208781719208
scalar FogNoLB.fog[62].server[0] congestionRatio 0
scalar FogNoLB.fog[62].server[0] totalJobs 5216
scalar FogNoLB.fog[62].server[0] droppedJobsQueue 1063
scalar FogNoLB.fog[62].server[0] droppedJobsTimout 0
scalar FogNoLB.fog[62].server[0] droppedJobsSLA 0
scalar FogNoLB.fog[62].server[0] droppedJobsTotal 1063
scalar FogNoLB.fog[63].dispatcher localJobs 5145
scalar FogNoLB.fog[63].dispatcher remoteJobs 0
scalar FogNoLB.fog[63].dispatcher probeQueries 0
scalar FogNoLB.fog[63].dispatcher probeAnswers 0
scalar FogNoLB.fog[63].dispatcher droppedJobsSLA 0
scalar FogNoLB.fog[63].dispatcher jobs_class_1 5145
scalar FogNoLB.fog[63].dispatcher localJobs_class_1 5145
scalar FogNoLB.fog[63].server[0] rho 0.63861829042435
scalar FogNoLB.fog[63].server[0] congestionRatio 0
scalar FogNoLB.fog[63].server[0] totalJobs 5145
scalar FogNoLB.fog[63].server[0] droppedJobsQueue 1013
scalar FogNoLB.fog[63].server[0] droppedJobsTimout 0
scalar FogNoLB.fog[63].server[0] droppedJobsSLA 0
scalar FogNoLB.fog[63].server[0] droppedJobsTotal 1013
scalar FogNoLB.fog[64].dispatcher localJobs 5249
scalar FogNoLB.fog[64].dispatcher remoteJobs 0
scalar FogNoLB.fog[64].dispatcher probeQueries 0
scalar FogNoLB.fog[64].dispatcher probeAnswers 0
scalar FogNoLB.fog[64].dispatcher droppedJobsSLA 0
scalar FogNoLB.fog[64].dispatcher jobs_class_1 5249
scalar FogNoLB.fog[64].dispatcher localJobs_class_1 5249
scalar FogNoLB.fog[64].server[0] rho 0.64574903249741
scalar FogNoLB.fog[64].server[0] congestionRatio 0
scalar FogNoLB.fog[64].server[0] totalJobs 5249
scalar FogNoLB.fog[64].server[0] droppedJobsQueue 1071
scalar FogNoLB.fog[64].server[0] droppedJobsTimout 0
scalar FogNoLB.fog[64].server[0] droppedJobsSLA 0
scalar FogNoLB.fog[64].server[0] droppedJobsTotal 1071
scalar FogNoLB.fog[65].dispatcher localJobs 5216
scalar FogNoLB.fog[65].dispatcher remoteJobs 0
scalar FogNoLB.fog[65].dispatcher probeQueries 0
scalar FogNoLB.fog[65].dispatcher probeAnswers 0
scalar FogNoLB.fog[65].dispatcher droppedJobsSLA 0
scalar FogNoLB.fog[65].dispatcher jobs_class_1 5216
scalar FogNoLB.fog[65].dispatcher localJobs_class_1 5216
scalar FogNoLB.fog[65].server[0] rho 0.64360105991364
scalar FogNoLB.fog[65].server[0] congestionRatio 0
scalar FogNoLB.fog[65].server[0] totalJobs 5216
scalar FogNoLB.fog[65].server[0] droppedJobsQueue 1055
scalar FogNoLB.fog[65].server[0] droppedJobsTimout 0
scalar FogNoLB.fog[65].server[0] droppedJobsSLA 0
scalar FogNoLB.fog[65].server[0] droppedJobsTotal 1055
scalar FogNoLB.fog[66].dispatcher localJobs 5151
scalar FogNoLB.fog[66].dispatcher remoteJobs 0
scalar FogNoLB.fog[66].dispatcher probeQueries 0
scalar FogNoLB.fog[66].dispatcher probeAnswers 0
scalar FogNoLB.fog[66].dispatcher droppedJobsSLA 0
scalar FogNoLB.fog[66].dispatcher jobs_class_1 5151
scalar FogNoLB.fog[66].dispatcher localJobs_class_1 5151
scalar FogNoLB.fog[66].server[0] rho 0.64155477285385
scalar FogNoLB.fog[66].server[0] congestionRatio 0
scalar FogNoLB.fog[66].server[0] totalJobs 5151
scalar FogNoLB.fog[66].server[0] droppedJobsQueue 1002
scalar FogNoLB.fog[66].server[0] droppedJobsTimout 0
scalar FogNoLB.fog[66].server[0] droppedJobsSLA 0
scalar FogNoLB.fog[66].server[0] droppedJobsTotal 1002
scalar FogNoLB.fog[67].dispatcher localJobs 5244
scalar FogNoLB.fog[67].dispatcher remoteJobs 0
scalar FogNoLB.fog[67].dispatcher probeQueries 0
scalar FogNoLB.fog[67].dispatcher probeAnswers 0
scalar FogNoLB.fog[67].dispatcher droppedJobsSLA 0
scalar FogNoLB.fog[67].dispatcher jobs_class_1 5244
scalar FogNoLB.fog[67].dispatcher localJobs_class_1 5244
scalar FogNoLB.fog[67].server[0] rho 0.64202177524567
scalar FogNoLB.fog[67].server[0] congestionRatio 0
scalar FogNoLB.fog[67].server[0] totalJobs 5244
scalar FogNoLB.fog[67].server[0] droppedJobsQueue 1092
scalar FogNoLB.fog[67].server[0] droppedJobsTimout 0
scalar FogNoLB.fog[67].server[0] droppedJobsSLA 0
scalar FogNoLB.fog[67].server[0] droppedJobsTotal 1092
scalar FogNoLB.fog[68].dispatcher localJobs 5222
scalar FogNoLB.fog[68].dispatcher remoteJobs 0
scalar FogNoLB.fog[68].dispatcher probeQueries 0
scalar FogNoLB.fog[68].dispatcher probeAnswers 0
scalar FogNoLB.fog[68].dispatcher droppedJobsSLA 0
scalar FogNoLB.fog[68].dispatcher jobs_class_1 5222
scalar FogNoLB.fog[68].dispatcher localJobs_class_1 5222
scalar FogNoLB.fog[68].server[0] rho 0.646668612957
scalar FogNoLB.fog[68].server[0] congestionRatio 0
scalar FogNoLB.fog[68].server[0] totalJobs 5222
scalar FogNoLB.fog[68].server[0] droppedJobsQueue 1041
scalar FogNoLB.fog[68].server[0] droppedJobsTimout 0
scalar FogNoLB.fog[68].server[0] droppedJobsSLA 0
scalar FogNoLB.fog[68].server[0] droppedJobsTotal 1041
scalar FogNoLB.fog[69].dispatcher localJobs 5238
scalar FogNoLB.fog[69].dispatcher remoteJobs 0
scalar FogNoLB.fog[69].dispatcher probeQueries 0
scalar FogNoLB.fog[69].dispatcher probeAnswers 0
scalar FogNoLB.fog[69].dispatcher droppedJobsSLA 0
scalar FogNoLB.fog[69].dispatcher jobs_class_1 5238
scalar FogNoLB.fog[69].dispatcher localJobs_class_1 5238
scalar FogNoLB.fog[69].server[0] rho 0.64191806316376
scalar FogNoLB.fog[69].server[0] congestionRatio 0
scalar FogNoLB.fog[69].server[0] totalJobs 5238
scalar FogNoLB.fog[69].server[0] droppedJobsQueue 1089
scalar FogNoLB.fog[69].server[0] droppedJobsTimout 0
scalar FogNoLB.fog[69].server[0] droppedJobsSLA 0
scalar FogNoLB.fog[69].server[0] droppedJobsTotal 1089
scalar FogNoLB.fog[70].dispatcher localJobs 5253
scalar FogNoLB.fog[70].dispatcher remoteJobs 0
scalar FogNoLB.fog[70].dispatcher probeQueries 0
scalar FogNoLB.fog[70].dispatcher probeAnswers 0
scalar FogNoLB.fog[70].dispatcher droppedJobsSLA 0
scalar FogNoLB.fog[70].dispatcher jobs_class_1 5253
scalar FogNoLB.fog[70].dispatcher localJobs_class_1 5253
scalar FogNoLB.fog[70].server[0] rho 0.6416951417923
scalar FogNoLB.fog[70].server[0] congestionRatio 0
scalar FogNoLB.fog[70].server[0] totalJobs 5253
scalar FogNoLB.fog[70].server[0] droppedJobsQueue 1104
scalar FogNoLB.fog[70].server[0] droppedJobsTimout 0
scalar FogNoLB.fog[70].server[0] droppedJobsSLA 0
scalar FogNoLB.fog[70].server[0] droppedJobsTotal 1104
scalar FogNoLB.fog[71].dispatcher localJobs 5174
scalar FogNoLB.fog[71].dispatcher remoteJobs 0
scalar FogNoLB.fog[71].dispatcher probeQueries 0
scalar FogNoLB.fog[71].dispatcher probeAnswers 0
scalar FogNoLB.fog[71].dispatcher droppedJobsSLA 0
scalar FogNoLB.fog[71].dispatcher jobs_class_1 5174
scalar FogNoLB.fog[71].dispatcher localJobs_class_1 5174
scalar FogNoLB.fog[71].server[0] rho 0.63963735103607
scalar FogNoLB.fog[71].server[0] congestionRatio 0
scalar FogNoLB.fog[71].server[0] totalJobs 5174
scalar FogNoLB.fog[71].server[0] droppedJobsQueue 1036
scalar FogNoLB.fog[71].server[0] droppedJobsTimout 0
scalar FogNoLB.fog[71].server[0] droppedJobsSLA 0
scalar FogNoLB.fog[71].server[0] droppedJobsTotal 1036
scalar FogNoLB.fog[72].dispatcher localJobs 5150
scalar FogNoLB.fog[72].dispatcher remoteJobs 0
scalar FogNoLB.fog[72].dispatcher probeQueries 0
scalar FogNoLB.fog[72].dispatcher probeAnswers 0
scalar FogNoLB.fog[72].dispatcher droppedJobsSLA 0
scalar FogNoLB.fog[72].dispatcher jobs_class_1 5150
scalar FogNoLB.fog[72].dispatcher localJobs_class_1 5150
scalar FogNoLB.fog[72].server[0] rho 0.64023315906525
scalar FogNoLB.fog[72].server[0] congestionRatio 0
scalar FogNoLB.fog[72].server[0] totalJobs 5150
scalar FogNoLB.fog[72].server[0] droppedJobsQueue 1009
scalar FogNoLB.fog[72].server[0] droppedJobsTimout 0
scalar FogNoLB.fog[72].server[0] droppedJobsSLA 0
scalar FogNoLB.fog[72].server[0] droppedJobsTotal 1009
scalar FogNoLB.fog[73].dispatcher localJobs 5196
scalar FogNoLB.fog[73].dispatcher remoteJobs 0
scalar FogNoLB.fog[73].dispatcher probeQueries 0
scalar FogNoLB.fog[73].dispatcher probeAnswers 0
scalar FogNoLB.fog[73].dispatcher droppedJobsSLA 0
scalar FogNoLB.fog[73].dispatcher jobs_class_1 5196
scalar FogNoLB.fog[73].dispatcher localJobs_class_1 5196
scalar FogNoLB.fog[73].server[0] rho 0.64513540267944
scalar FogNoLB.fog[73].server[0] congestionRatio 0
scalar FogNoLB.fog[73].server[0] totalJobs 5196
scalar FogNoLB.fog[73].server[0] droppedJobsQueue 1024
scalar FogNoLB.fog[73].server[0] droppedJobsTimout 0
scalar FogNoLB.fog[73].server[0] droppedJobsSLA 0
scalar FogNoLB.fog[73].server[0] droppedJobsTotal 1024
scalar FogNoLB.fog[74].dispatcher localJobs 5126
scalar FogNoLB.fog[74].dispatcher remoteJobs 0
scalar FogNoLB.fog[74].dispatcher probeQueries 0
scalar FogNoLB.fog[74].dispatcher probeAnswers 0
scalar FogNoLB.fog[74].dispatcher droppedJobsSLA 0
scalar FogNoLB.fog[74].dispatcher jobs_class_1 5126
scalar FogNoLB.fog[74].dispatcher localJobs_class_1 5126
scalar FogNoLB.fog[74].server[0] rho 0.63912779092789
scalar FogNoLB.fog[74].server[0] congestionRatio 0
scalar FogNoLB.fog[74].server[0] totalJobs 5126
scalar FogNoLB.fog[74].server[0] droppedJobsQueue 991
scalar FogNoLB.fog[74].server[0] droppedJobsTimout 0
scalar FogNoLB.fog[74].server[0] droppedJobsSLA 0
scalar FogNoLB.fog[74].server[0] droppedJobsTotal 991
scalar FogNoLB.fog[75].dispatcher localJobs 5256
scalar FogNoLB.fog[75].dispatcher remoteJobs 0
scalar FogNoLB.fog[75].dispatcher probeQueries 0
scalar FogNoLB.fog[75].dispatcher probeAnswers 0
scalar FogNoLB.fog[75].dispatcher droppedJobsSLA 0
scalar FogNoLB.fog[75].dispatcher jobs_class_1 5256
scalar FogNoLB.fog[75].dispatcher localJobs_class_1 5256
scalar FogNoLB.fog[75].server[0] rho 0.64283055067062
scalar FogNoLB.fog[75].server[0] congestionRatio 0
scalar FogNoLB.fog[75].server[0] totalJobs 5256
scalar FogNoLB.fog[75].server[0] droppedJobsQueue 1097
scalar FogNoLB.fog[75].server[0] droppedJobsTimout 0
scalar FogNoLB.fog[75].server[0] droppedJobsSLA 0
scalar FogNoLB.fog[75].server[0] droppedJobsTotal 1097
scalar FogNoLB.fog[76].dispatcher localJobs 5155
scalar FogNoLB.fog[76].dispatcher remoteJobs 0
scalar FogNoLB.fog[76].dispatcher probeQueries 0
scalar FogNoLB.fog[76].dispatcher probeAnswers 0
scalar FogNoLB.fog[76].dispatcher droppedJobsSLA 0
scalar FogNoLB.fog[76].dispatcher jobs_class_1 5155
scalar FogNoLB.fog[76].dispatcher localJobs_class_1 5155
scalar FogNoLB.fog[76].server[0] rho 0.63511848449707
scalar FogNoLB.fog[76].server[0] congestionRatio 0
scalar FogNoLB.fog[76].server[0] totalJobs 5155
scalar FogNoLB.fog[76].server[0] droppedJobsQueue 1047
scalar FogNoLB.fog[76].server[0] droppedJobsTimout 0
scalar FogNoLB.fog[76].server[0] droppedJobsSLA 0
scalar FogNoLB.fog[76].server[0] droppedJobsTotal 1047
scalar FogNoLB.fog[77].dispatcher localJobs 5223
scalar FogNoLB.fog[77].dispatcher remoteJobs 0
scalar FogNoLB.fog[77].dispatcher probeQueries 0
scalar FogNoLB.fog[77].dispatcher probeAnswers 0
scalar FogNoLB.fog[77].dispatcher droppedJobsSLA 0
scalar FogNoLB.fog[77].dispatcher jobs_class_1 5223
scalar FogNoLB.fog[77].dispatcher localJobs_class_1 5223
scalar FogNoLB.fog[77].server[0] rho 0.64169013500214
scalar FogNoLB.fog[77].server[0] congestionRatio 0
scalar FogNoLB.fog[77].server[0] totalJobs 5223
scalar FogNoLB.fog[77].server[0] droppedJobsQueue 1072
scalar FogNoLB.fog[77].server[0] droppedJobsTimout 0
scalar FogNoLB.fog[77].server[0] droppedJobsSLA 0
scalar FogNoLB.fog[77].server[0] droppedJobsTotal 1072
scalar FogNoLB.fog[78].dispatcher localJobs 5197
scalar FogNoLB.fog[78].dispatcher remoteJobs 0
scalar FogNoLB.fog[78].dispatcher probeQueries 0
scalar FogNoLB.fog[78].dispatcher probeAnswers 0
scalar FogNoLB.fog[78].dispatcher droppedJobsSLA 0
scalar FogNoLB.fog[78].dispatcher jobs_class_1 5197
scalar FogNoLB.fog[78].dispatcher localJobs_class_1 5197
scalar FogNoLB.fog[78].server[0] rho 0.64740651845932
scalar FogNoLB.fog[78].server[0] congestionRatio 0
scalar FogNoLB.fog[78].server[0] totalJobs 5197
scalar FogNoLB.fog[78].server[0] droppedJobsQueue 1012
scalar FogNoLB.fog[78].server[0] droppedJobsTimout 0
scalar FogNoLB.fog[78].server[0] droppedJobsSLA 0
scalar FogNoLB.fog[78].server[0] droppedJobsTotal 1012
scalar FogNoLB.fog[79].dispatcher localJobs 5178
scalar FogNoLB.fog[79].dispatcher remoteJobs 0
scalar FogNoLB.fog[79].dispatcher probeQueries 0
scalar FogNoLB.fog[79].dispatcher probeAnswers 0
scalar FogNoLB.fog[79].dispatcher droppedJobsSLA 0
scalar FogNoLB.fog[79].dispatcher jobs_class_1 5178
scalar FogNoLB.fog[79].dispatcher localJobs_class_1 5178
scalar FogNoLB.fog[79].server[0] rho 0.6445204615593
scalar FogNoLB.fog[79].server[0] congestionRatio 0
scalar FogNoLB.fog[79].server[0] totalJobs 5178
scalar FogNoLB.fog[79].server[0] droppedJobsQueue 1009
scalar FogNoLB.fog[79].server[0] droppedJobsTimout 0
scalar FogNoLB.fog[79].server[0] droppedJobsSLA 0
scalar FogNoLB.fog[79].server[0] droppedJobsTotal 1009
scalar FogNoLB.fog[80].dispatcher localJobs 5226
scalar FogNoLB.fog[80].dispatcher remoteJobs 0
scalar FogNoLB.fog[80].dispatcher probeQueries 0
scalar FogNoLB.fog[80].dispatcher probeAnswers 0
scalar FogNoLB.fog[80].dispatcher droppedJobsSLA 0
scalar FogNoLB.fog[80].dispatcher jobs_class_1 5226
scalar FogNoLB.fog[80].dispatcher localJobs_class_1 5226
scalar FogNoLB.fog[80].server[0] rho 0.64721661806107
scalar FogNoLB.fog[80].server[0] congestionRatio 0
scalar FogNoLB.fog[80].server[0] totalJobs 5226
scalar FogNoLB.fog[80].server[0] droppedJobsQueue 1040
scalar FogNoLB.fog[80].server[0] droppedJobsTimout 0
scalar FogNoLB.fog[80].server[0] droppedJobsSLA 0
scalar FogNoLB.fog[80].server[0] droppedJobsTotal 1040
scalar FogNoLB.fog[81].dispatcher localJobs 5159
scalar FogNoLB.fog[81].dispatcher remoteJobs 0
scalar FogNoLB.fog[81].dispatcher probeQueries 0
scalar FogNoLB.fog[81].dispatcher probeAnswers 0
scalar FogNoLB.fog[81].dispatcher droppedJobsSLA 0
scalar FogNoLB.fog[81].dispatcher jobs_class_1 5159
scalar FogNoLB.fog[81].dispatcher localJobs_class_1 5159
scalar FogNoLB.fog[81].server[0] rho 0.636763215065
scalar FogNoLB.fog[81].server[0] congestionRatio 0
scalar FogNoLB.fog[81].server[0] totalJobs 5159
scalar FogNoLB.fog[81].server[0] droppedJobsQueue 1040
scalar FogNoLB.fog[81].server[0] droppedJobsTimout 0
scalar FogNoLB.fog[81].server[0] droppedJobsSLA 0
scalar FogNoLB.fog[81].server[0] droppedJobsTotal 1040
scalar FogNoLB.fog[82].dispatcher localJobs 5229
scalar FogNoLB.fog[82].dispatcher remoteJobs 0
scalar FogNoLB.fog[82].dispatcher probeQueries 0
scalar FogNoLB.fog[82].dispatcher probeAnswers 0
scalar FogNoLB.fog[82].dispatcher droppedJobsSLA 0
scalar FogNoLB.fog[82].dispatcher jobs_class_1 5229
scalar FogNoLB.fog[82].dispatcher localJobs_class_1 5229
scalar FogNoLB.fog[82].server[0] rho 0.64661979675293
scalar FogNoLB.fog[82].server[0] congestionRatio 0
scalar FogNoLB.fog[82].server[0] totalJobs 5229
scalar FogNoLB.fog[82].server[0] droppedJobsQueue 1045
scalar FogNoLB.fog[82].server[0] droppedJobsTimout 0
scalar FogNoLB.fog[82].server[0] droppedJobsSLA 0
scalar FogNoLB.fog[82].server[0] droppedJobsTotal 1045
scalar FogNoLB.fog[83].dispatcher localJobs 5095
scalar FogNoLB.fog[83].dispatcher remoteJobs 0
scalar FogNoLB.fog[83].dispatcher probeQueries 0
scalar FogNoLB.fog[83].dispatcher probeAnswers 0
scalar FogNoLB.fog[83].dispatcher droppedJobsSLA 0
scalar FogNoLB.fog[83].dispatcher jobs_class_1 5095
scalar FogNoLB.fog[83].dispatcher localJobs_class_1 5095
scalar FogNoLB.fog[83].server[0] rho 0.63157618045807
scalar FogNoLB.fog[83].server[0] congestionRatio 0
scalar FogNoLB.fog[83].server[0] totalJobs 5095
scalar FogNoLB.fog[83].server[0] droppedJobsQueue 1010
scalar FogNoLB.fog[83].server[0] droppedJobsTimout 0
scalar FogNoLB.fog[83].server[0] droppedJobsSLA 0
scalar FogNoLB.fog[83].server[0] droppedJobsTotal 1010
scalar FogNoLB.fog[84].dispatcher localJobs 5205
scalar FogNoLB.fog[84].dispatcher remoteJobs 0
scalar FogNoLB.fog[84].dispatcher probeQueries 0
scalar FogNoLB.fog[84].dispatcher probeAnswers 0
scalar FogNoLB.fog[84].dispatcher droppedJobsSLA 0
scalar FogNoLB.fog[84].dispatcher jobs_class_1 5205
scalar FogNoLB.fog[84].dispatcher localJobs_class_1 5205
scalar FogNoLB.fog[84].server[0] rho 0.64774340391159
scalar FogNoLB.fog[84].server[0] congestionRatio 0
scalar FogNoLB.fog[84].server[0] totalJobs 5205
scalar FogNoLB.fog[84].server[0] droppedJobsQueue 1015
scalar FogNoLB.fog[84].server[0] droppedJobsTimout 0
scalar FogNoLB.fog[84].server[0] droppedJobsSLA 0
scalar FogNoLB.fog[84].server[0] droppedJobsTotal 1015
scalar FogNoLB.fog[85].dispatcher localJobs 5332
scalar FogNoLB.fog[85].dispatcher remoteJobs 0
scalar FogNoLB.fog[85].dispatcher probeQueries 0
scalar FogNoLB.fog[85].dispatcher probeAnswers 0
scalar FogNoLB.fog[85].dispatcher droppedJobsSLA 0
scalar FogNoLB.fog[85].dispatcher jobs_class_1 5332
scalar FogNoLB.fog[85].dispatcher localJobs_class_1 5332
scalar FogNoLB.fog[85].server[0] rho 0.65795707702637
scalar FogNoLB.fog[85].server[0] congestionRatio 0
scalar FogNoLB.fog[85].server[0] totalJobs 5332
scalar FogNoLB.fog[85].server[0] droppedJobsQueue 1077
scalar FogNoLB.fog[85].server[0] droppedJobsTimout 0
scalar FogNoLB.fog[85].server[0] droppedJobsSLA 0
scalar FogNoLB.fog[85].server[0] droppedJobsTotal 1077
scalar FogNoLB.fog[86].dispatcher localJobs 5117
scalar FogNoLB.fog[86].dispatcher remoteJobs 0
scalar FogNoLB.fog[86].dispatcher probeQueries 0
scalar FogNoLB.fog[86].dispatcher probeAnswers 0
scalar FogNoLB.fog[86].dispatcher droppedJobsSLA 0
scalar FogNoLB.fog[86].dispatcher jobs_class_1 5117
scalar FogNoLB.fog[86].dispatcher localJobs_class_1 5117
scalar FogNoLB.fog[86].server[0] rho 0.63637614250183
scalar FogNoLB.fog[86].server[0] congestionRatio 0
scalar FogNoLB.fog[86].server[0] totalJobs 5117
scalar FogNoLB.fog[86].server[0] droppedJobsQueue 1001
scalar FogNoLB.fog[86].server[0] droppedJobsTimout 0
scalar FogNoLB.fog[86].server[0] droppedJobsSLA 0
scalar FogNoLB.fog[86].server[0] droppedJobsTotal 1001
scalar FogNoLB.fog[87].dispatcher localJobs 5090
scalar FogNoLB.fog[87].dispatcher remoteJobs 0
scalar FogNoLB.fog[87].dispatcher probeQueries 0
scalar FogNoLB.fog[87].dispatcher probeAnswers 0
scalar FogNoLB.fog[87].dispatcher droppedJobsSLA 0
scalar FogNoLB.fog[87].dispatcher jobs_class_1 5090
scalar FogNoLB.fog[87].dispatcher localJobs_class_1 5090
scalar FogNoLB.fog[87].server[0] rho 0.63792926073074
scalar FogNoLB.fog[87].server[0] congestionRatio 0
scalar FogNoLB.fog[87].server[0] totalJobs 5090
scalar FogNoLB.fog[87].server[0] droppedJobsQueue 962
scalar FogNoLB.fog[87].server[0] droppedJobsTimout 0
scalar FogNoLB.fog[87].server[0] droppedJobsSLA 0
scalar FogNoLB.fog[87].server[0] droppedJobsTotal 962
scalar FogNoLB.fog[88].dispatcher localJobs 5186
scalar FogNoLB.fog[88].dispatcher remoteJobs 0
scalar FogNoLB.fog[88].dispatcher probeQueries 0
scalar FogNoLB.fog[88].dispatcher probeAnswers 0
scalar FogNoLB.fog[88].dispatcher droppedJobsSLA 0
scalar FogNoLB.fog[88].dispatcher jobs_class_1 5186
scalar FogNoLB.fog[88].dispatcher localJobs_class_1 5186
scalar FogNoLB.fog[88].server[0] rho 0.64250630140305
scalar FogNoLB.fog[88].server[0] congestionRatio 0
scalar FogNoLB.fog[88].server[0] totalJobs 5186
scalar FogNoLB.fog[88].server[0] droppedJobsQueue 1033
scalar FogNoLB.fog[88].server[0] droppedJobsTimout 0
scalar FogNoLB.fog[88].server[0] droppedJobsSLA 0
scalar FogNoLB.fog[88].server[0] droppedJobsTotal 1033
scalar FogNoLB.fog[89].dispatcher localJobs 5186
scalar FogNoLB.fog[89].dispatcher remoteJobs 0
scalar FogNoLB.fog[89].dispatcher probeQueries 0
scalar FogNoLB.fog[89].dispatcher probeAnswers 0
scalar FogNoLB.fog[89].dispatcher droppedJobsSLA 0
scalar FogNoLB.fog[89].dispatcher jobs_class_1 5186
scalar FogNoLB.fog[89].dispatcher localJobs_class_1 5186
scalar FogNoLB.fog[89].server[0] rho 0.64508950710297
scalar FogNoLB.fog[89].server[0] congestionRatio 0
scalar FogNoLB.fog[89].server[0] totalJobs 5186
scalar FogNoLB.fog[89].server[0] droppedJobsQueue 1013
scalar FogNoLB.fog[89].server[0] droppedJobsTimout 0
scalar FogNoLB.fog[89].server[0] droppedJobsSLA 0
scalar FogNoLB.fog[89].server[0] droppedJobsTotal 1013
scalar FogNoLB.fog[90].dispatcher localJobs 5057
scalar FogNoLB.fog[90].dispatcher remoteJobs 0
scalar FogNoLB.fog[90].dispatcher probeQueries 0
scalar FogNoLB.fog[90].dispatcher probeAnswers 0
scalar FogNoLB.fog[90].dispatcher droppedJobsSLA 0
scalar FogNoLB.fog[90].dispatcher jobs_class_1 5057
scalar FogNoLB.fog[90].dispatcher localJobs_class_1 5057
scalar FogNoLB.fog[90].server[0] rho 0.63151401281357
scalar FogNoLB.fog[90].server[0] congestionRatio 0
scalar FogNoLB.fog[90].server[0] totalJobs 5057
scalar FogNoLB.fog[90].server[0] droppedJobsQueue 973
scalar FogNoLB.fog[90].server[0] droppedJobsTimout 0
scalar FogNoLB.fog[90].server[0] droppedJobsSLA 0
scalar FogNoLB.fog[90].server[0] droppedJobsTotal 973
scalar FogNoLB.fog[91].dispatcher localJobs 5092
scalar FogNoLB.fog[91].dispatcher remoteJobs 0
scalar FogNoLB.fog[91].dispatcher probeQueries 0
scalar FogNoLB.fog[91].dispatcher probeAnswers 0
scalar FogNoLB.fog[91].dispatcher droppedJobsSLA 0
scalar FogNoLB.fog[91].dispatcher jobs_class_1 5092
scalar FogNoLB.fog[91].dispatcher localJobs_class_1 5092
scalar FogNoLB.fog[91].server[0] rho 0.63097947835922
scalar FogNoLB.fog[91].server[0] congestionRatio 0
scalar FogNoLB.fog[91].server[0] totalJobs 5092
scalar FogNoLB.fog[91].server[0] droppedJobsQueue 1012
scalar FogNoLB.fog[91].server[0] droppedJobsTimout 0
scalar FogNoLB.fog[91].server[0] droppedJobsSLA 0
scalar FogNoLB.fog[91].server[0] droppedJobsTotal 1012
scalar FogNoLB.fog[92].dispatcher localJobs 5163
scalar FogNoLB.fog[92].dispatcher remoteJobs 0
scalar FogNoLB.fog[92].dispatcher probeQueries 0
scalar FogNoLB.fog[92].dispatcher probeAnswers 0
scalar FogNoLB.fog[92].dispatcher droppedJobsSLA 0
scalar FogNoLB.fog[92].dispatcher jobs_class_1 5163
scalar FogNoLB.fog[92].dispatcher localJobs_class_1 5163
scalar FogNoLB.fog[92].server[0] rho 0.63917279243469
scalar FogNoLB.fog[92].server[0] congestionRatio 0
scalar FogNoLB.fog[92].server[0] totalJobs 5163
scalar FogNoLB.fog[92].server[0] droppedJobsQueue 1029
scalar FogNoLB.fog[92].server[0] droppedJobsTimout 0
scalar FogNoLB.fog[92].server[0] droppedJobsSLA 0
scalar FogNoLB.fog[92].server[0] droppedJobsTotal 1029
scalar FogNoLB.fog[93].dispatcher localJobs 5228
scalar FogNoLB.fog[93].dispatcher remoteJobs 0
scalar FogNoLB.fog[93].dispatcher probeQueries 0
scalar FogNoLB.fog[93].dispatcher probeAnswers 0
scalar FogNoLB.fog[93].dispatcher droppedJobsSLA 0
scalar FogNoLB.fog[93].dispatcher jobs_class_1 5228
scalar FogNoLB.fog[93].dispatcher localJobs_class_1 5228
scalar FogNoLB.fog[93].server[0] rho 0.64418512582779
scalar FogNoLB.fog[93].server[0] congestionRatio 0
scalar FogNoLB.fog[93].server[0] totalJobs 5228
scalar FogNoLB.fog[93].server[0] droppedJobsQueue 1062
scalar FogNoLB.fog[93].server[0] droppedJobsTimout 0
scalar FogNoLB.fog[93].server[0] droppedJobsSLA 0
scalar FogNoLB.fog[93].server[0] droppedJobsTotal 1062
scalar FogNoLB.fog[94].dispatcher localJobs 5177
scalar FogNoLB.fog[94].dispatcher remoteJobs 0
scalar FogNoLB.fog[94].dispatcher probeQueries 0
scalar FogNoLB.fog[94].dispatcher probeAnswers 0
scalar FogNoLB.fog[94].dispatcher droppedJobsSLA 0
scalar FogNoLB.fog[94].dispatcher jobs_class_1 5177
scalar FogNoLB.fog[94].dispatcher localJobs_class_1 5177
scalar FogNoLB.fog[94].server[0] rho 0.63923096656799
scalar FogNoLB.fog[94].server[0] congestionRatio 0
scalar FogNoLB.fog[94].server[0] totalJobs 5177
scalar FogNoLB.fog[94].server[0] droppedJobsQueue 1041
scalar FogNoLB.fog[94].server[0] droppedJobsTimout 0
scalar FogNoLB.fog[94].server[0] droppedJobsSLA 0
scalar FogNoLB.fog[94].server[0] droppedJobsTotal 1041
scalar FogNoLB.fog[95].dispatcher localJobs 5189
scalar FogNoLB.fog[95].dispatcher remoteJobs 0
scalar FogNoLB.fog[95].dispatcher probeQueries 0
scalar FogNoLB.fog[95].dispatcher probeAnswers 0
scalar FogNoLB.fog[95].dispatcher droppedJobsSLA 0
scalar FogNoLB.fog[95].dispatcher jobs_class_1 5189
scalar FogNoLB.fog[95].dispatcher localJobs_class_1 5189
scalar FogNoLB.fog[95].server[0] rho 0.64077806472778
scalar FogNoLB.fog[95].server[0] congestionRatio 0
scalar FogNoLB.fog[95].server[0] totalJobs 5189
scalar FogNoLB.fog[95].server[0] droppedJobsQueue 1042
scalar FogNoLB.fog[95].server[0] droppedJobsTimout 0
scalar FogNoLB.fog[95].server[0] droppedJobsSLA 0
scalar FogNoLB.fog[95].server[0] droppedJobsTotal 1042
scalar FogNoLB.fog[96].dispatcher localJobs 5171
scalar FogNoLB.fog[96].dispatcher remoteJobs 0
scalar FogNoLB.fog[96].dispatcher probeQueries 0
scalar FogNoLB.fog[96].dispatcher probeAnswers 0
scalar FogNoLB.fog[96].dispatcher droppedJobsSLA 0
scalar FogNoLB.fog[96].dispatcher jobs_class_1 5171
scalar FogNoLB.fog[96].dispatcher localJobs_class_1 5171
scalar FogNoLB.fog[96].server[0] rho 0.63904112577438
scalar FogNoLB.fog[96].server[0] congestionRatio 0
scalar FogNoLB.fog[96].server[0] totalJobs 5171
scalar FogNoLB.fog[96].server[0] droppedJobsQueue 1036
scalar FogNoLB.fog[96].server[0] droppedJobsTimout 0
scalar FogNoLB.fog[96].server[0] droppedJobsSLA 0
scalar FogNoLB.fog[96].server[0] droppedJobsTotal 1036
scalar FogNoLB.fog[97].dispatcher localJobs 5198
scalar FogNoLB.fog[97].dispatcher remoteJobs 0
scalar FogNoLB.fog[97].dispatcher probeQueries 0
scalar FogNoLB.fog[97].dispatcher probeAnswers 0
scalar FogNoLB.fog[97].dispatcher droppedJobsSLA 0
scalar FogNoLB.fog[97].dispatcher jobs_class_1 5198
scalar FogNoLB.fog[97].dispatcher localJobs_class_1 5198
scalar FogNoLB.fog[97].server[0] rho 0.64644032716751
scalar FogNoLB.fog[97].server[0] congestionRatio 0
scalar FogNoLB.fog[97].server[0] totalJobs 5198
scalar FogNoLB.fog[97].server[0] droppedJobsQueue 1019
scalar FogNoLB.fog[97].server[0] droppedJobsTimout 0
scalar FogNoLB.fog[97].server[0] droppedJobsSLA 0
scalar FogNoLB.fog[97].server[0] droppedJobsTotal 1019
scalar FogNoLB.fog[98].dispatcher localJobs 5170
scalar FogNoLB.fog[98].dispatcher remoteJobs 0
scalar FogNoLB.fog[98].dispatcher probeQueries 0
scalar FogNoLB.fog[98].dispatcher probeAnswers 0
scalar FogNoLB.fog[98].dispatcher droppedJobsSLA 0
scalar FogNoLB.fog[98].dispatcher jobs_class_1 5170
scalar FogNoLB.fog[98].dispatcher localJobs_class_1 5170
scalar FogNoLB.fog[98].server[0] rho 0.64364290237427
scalar FogNoLB.fog[98].server[0] congestionRatio 0
scalar FogNoLB.fog[98].server[0] totalJobs 5170
scalar FogNoLB.fog[98].server[0] droppedJobsQueue 1003
scalar FogNoLB.fog[98].server[0] droppedJobsTimout 0
scalar FogNoLB.fog[98].server[0] droppedJobsSLA 0
scalar FogNoLB.fog[98].server[0] droppedJobsTotal 1003
scalar FogNoLB.fog[99].dispatcher localJobs 5159
scalar FogNoLB.fog[99].dispatcher remoteJobs 0
scalar FogNoLB.fog[99].dispatcher probeQueries 0
scalar FogNoLB.fog[99].dispatcher probeAnswers 0
scalar FogNoLB.fog[99].dispatcher droppedJobsSLA 0
scalar FogNoLB.fog[99].dispatcher jobs_class_1 5159
scalar FogNoLB.fog[99].dispatcher localJobs_class_1 5159
scalar FogNoLB.fog[99].server[0] rho 0.63750809431076
scalar FogNoLB.fog[99].server[0] congestionRatio 0
scalar FogNoLB.fog[99].server[0] totalJobs 5159
scalar FogNoLB.fog[99].server[0] droppedJobsQueue 1038
scalar FogNoLB.fog[99].server[0] droppedJobsTimout 0
scalar FogNoLB.fog[99].server[0] droppedJobsSLA 0
scalar FogNoLB.fog[99].server[0] droppedJobsTotal 1038
scalar FogNoLB.sink avg_responseTime_1 2.1907066511881
scalar FogNoLB.sink p90_responseTime_1 1.513780141058
scalar FogNoLB.sink med_responseTime_1 1.513780141058
scalar FogNoLB.sink avg_delayTime_1 0
scalar FogNoLB.sink p90_delayTime_1 0
scalar FogNoLB.sink med_delayTime_1 0
scalar FogNoLB.sink avg_queuingTime_1 0.52074031564582
scalar FogNoLB.sink p90_queuingTime_1 0
scalar FogNoLB.sink med_queuingTime_1 0
scalar FogNoLB.sink avg_serviceTime_1 1.6699663355422
scalar FogNoLB.sink p90_serviceTime_1 1.502214162563
scalar FogNoLB.sink med_serviceTime_1 1.502214162563
scalar FogNoLB.sink avg_balancerTime_1 0
scalar FogNoLB.sink p90_balancerTime_1 0
scalar FogNoLB.sink med_balancerTime_1 0
scalar FogNoLB.sink avg_balancerCount_1 1
scalar FogNoLB.sink p90_balancerCount_1 1
scalar FogNoLB.sink med_balancerCount_1 1

