version 2
run Fog-mul_001-rho_08-thr_9-0-20190711-19:13:59-52381
attr configname Fog-mul_001-rho_08-thr_9
attr datetime 20190711-19:13:59
attr experiment Fog-mul_001-rho_08-thr_9
attr inifile FogQueueLen.ini
attr iterationvars ""
attr iterationvarsf ""
attr measurement ""
attr network FogNoLB
attr processid 52381
attr repetition 0
attr replication #0
attr resultdir results
attr runnumber 0
attr seedset 0
param FogNoLB.proctimeMul 0.01
param FogNoLB.rho 0.8
param FogNoLB.fog[*].server[*].capacity 9
param FogNoLB.nSources 100
param FogNoLB.rho 0.9
param FogNoLB.proctimeMul 1.0
param FogNoLB.source[*].appId 1
param FogNoLB.fog[*].nServers 1
param FogNoLB.fog[*].dispatcher.fanOut 1
param FogNoLB.fog[*].server[*].timeSlice -1s
param FogNoLB.fog[*].server[*].capacity 5
param FogNoLB.fog[*].server[*].fifo true
param FogNoLB.fog[*].server[*].maxServiceTime -1s

scalar FogNoLB.fog[0].dispatcher localJobs 517279
scalar FogNoLB.fog[0].dispatcher remoteJobs 0
scalar FogNoLB.fog[0].dispatcher probeQueries 0
scalar FogNoLB.fog[0].dispatcher probeAnswers 0
scalar FogNoLB.fog[0].dispatcher droppedJobsSLA 0
scalar FogNoLB.fog[0].dispatcher jobs_class_1 517279
scalar FogNoLB.fog[0].dispatcher localJobs_class_1 517279
scalar FogNoLB.fog[0].server[0] rho 0.79702913761139
scalar FogNoLB.fog[0].server[0] congestionRatio 0
scalar FogNoLB.fog[0].server[0] totalJobs 517279
scalar FogNoLB.fog[0].server[0] droppedJobsQueue 1819
scalar FogNoLB.fog[0].server[0] droppedJobsTimout 125
scalar FogNoLB.fog[0].server[0] droppedJobsSLA 0
scalar FogNoLB.fog[0].server[0] droppedJobsTotal 1944
scalar FogNoLB.fog[1].dispatcher localJobs 516748
scalar FogNoLB.fog[1].dispatcher remoteJobs 0
scalar FogNoLB.fog[1].dispatcher probeQueries 0
scalar FogNoLB.fog[1].dispatcher probeAnswers 0
scalar FogNoLB.fog[1].dispatcher droppedJobsSLA 0
scalar FogNoLB.fog[1].dispatcher jobs_class_1 516748
scalar FogNoLB.fog[1].dispatcher localJobs_class_1 516748
scalar FogNoLB.fog[1].server[0] rho 0.79606753587723
scalar FogNoLB.fog[1].server[0] congestionRatio 0
scalar FogNoLB.fog[1].server[0] totalJobs 516748
scalar FogNoLB.fog[1].server[0] droppedJobsQueue 1964
scalar FogNoLB.fog[1].server[0] droppedJobsTimout 126
scalar FogNoLB.fog[1].server[0] droppedJobsSLA 0
scalar FogNoLB.fog[1].server[0] droppedJobsTotal 2090
scalar FogNoLB.fog[2].dispatcher localJobs 517395
scalar FogNoLB.fog[2].dispatcher remoteJobs 0
scalar FogNoLB.fog[2].dispatcher probeQueries 0
scalar FogNoLB.fog[2].dispatcher probeAnswers 0
scalar FogNoLB.fog[2].dispatcher droppedJobsSLA 0
scalar FogNoLB.fog[2].dispatcher jobs_class_1 517395
scalar FogNoLB.fog[2].dispatcher localJobs_class_1 517395
scalar FogNoLB.fog[2].server[0] rho 0.79717087745667
scalar FogNoLB.fog[2].server[0] congestionRatio 0
scalar FogNoLB.fog[2].server[0] totalJobs 517395
scalar FogNoLB.fog[2].server[0] droppedJobsQueue 1871
scalar FogNoLB.fog[2].server[0] droppedJobsTimout 112
scalar FogNoLB.fog[2].server[0] droppedJobsSLA 0
scalar FogNoLB.fog[2].server[0] droppedJobsTotal 1983
scalar FogNoLB.fog[3].dispatcher localJobs 516633
scalar FogNoLB.fog[3].dispatcher remoteJobs 0
scalar FogNoLB.fog[3].dispatcher probeQueries 0
scalar FogNoLB.fog[3].dispatcher probeAnswers 0
scalar FogNoLB.fog[3].dispatcher droppedJobsSLA 0
scalar FogNoLB.fog[3].dispatcher jobs_class_1 516633
scalar FogNoLB.fog[3].dispatcher localJobs_class_1 516633
scalar FogNoLB.fog[3].server[0] rho 0.79598039388657
scalar FogNoLB.fog[3].server[0] congestionRatio 0
scalar FogNoLB.fog[3].server[0] totalJobs 516633
scalar FogNoLB.fog[3].server[0] droppedJobsQueue 1886
scalar FogNoLB.fog[3].server[0] droppedJobsTimout 120
scalar FogNoLB.fog[3].server[0] droppedJobsSLA 0
scalar FogNoLB.fog[3].server[0] droppedJobsTotal 2006
scalar FogNoLB.fog[4].dispatcher localJobs 516999
scalar FogNoLB.fog[4].dispatcher remoteJobs 0
scalar FogNoLB.fog[4].dispatcher probeQueries 0
scalar FogNoLB.fog[4].dispatcher probeAnswers 0
scalar FogNoLB.fog[4].dispatcher droppedJobsSLA 0
scalar FogNoLB.fog[4].dispatcher jobs_class_1 516999
scalar FogNoLB.fog[4].dispatcher localJobs_class_1 516999
scalar FogNoLB.fog[4].server[0] rho 0.79639357328415
scalar FogNoLB.fog[4].server[0] congestionRatio 0
scalar FogNoLB.fog[4].server[0] totalJobs 516999
scalar FogNoLB.fog[4].server[0] droppedJobsQueue 1951
scalar FogNoLB.fog[4].server[0] droppedJobsTimout 124
scalar FogNoLB.fog[4].server[0] droppedJobsSLA 0
scalar FogNoLB.fog[4].server[0] droppedJobsTotal 2075
scalar FogNoLB.fog[5].dispatcher localJobs 517812
scalar FogNoLB.fog[5].dispatcher remoteJobs 0
scalar FogNoLB.fog[5].dispatcher probeQueries 0
scalar FogNoLB.fog[5].dispatcher probeAnswers 0
scalar FogNoLB.fog[5].dispatcher droppedJobsSLA 0
scalar FogNoLB.fog[5].dispatcher jobs_class_1 517812
scalar FogNoLB.fog[5].dispatcher localJobs_class_1 517812
scalar FogNoLB.fog[5].server[0] rho 0.79775208234787
scalar FogNoLB.fog[5].server[0] congestionRatio 0
scalar FogNoLB.fog[5].server[0] totalJobs 517812
scalar FogNoLB.fog[5].server[0] droppedJobsQueue 1890
scalar FogNoLB.fog[5].server[0] droppedJobsTimout 132
scalar FogNoLB.fog[5].server[0] droppedJobsSLA 0
scalar FogNoLB.fog[5].server[0] droppedJobsTotal 2022
scalar FogNoLB.fog[6].dispatcher localJobs 518224
scalar FogNoLB.fog[6].dispatcher remoteJobs 0
scalar FogNoLB.fog[6].dispatcher probeQueries 0
scalar FogNoLB.fog[6].dispatcher probeAnswers 0
scalar FogNoLB.fog[6].dispatcher droppedJobsSLA 0
scalar FogNoLB.fog[6].dispatcher jobs_class_1 518224
scalar FogNoLB.fog[6].dispatcher localJobs_class_1 518224
scalar FogNoLB.fog[6].server[0] rho 0.79823988676071
scalar FogNoLB.fog[6].server[0] congestionRatio 0
scalar FogNoLB.fog[6].server[0] totalJobs 518224
scalar FogNoLB.fog[6].server[0] droppedJobsQueue 1984
scalar FogNoLB.fog[6].server[0] droppedJobsTimout 121
scalar FogNoLB.fog[6].server[0] droppedJobsSLA 0
scalar FogNoLB.fog[6].server[0] droppedJobsTotal 2105
scalar FogNoLB.fog[7].dispatcher localJobs 517986
scalar FogNoLB.fog[7].dispatcher remoteJobs 0
scalar FogNoLB.fog[7].dispatcher probeQueries 0
scalar FogNoLB.fog[7].dispatcher probeAnswers 0
scalar FogNoLB.fog[7].dispatcher droppedJobsSLA 0
scalar FogNoLB.fog[7].dispatcher jobs_class_1 517986
scalar FogNoLB.fog[7].dispatcher localJobs_class_1 517986
scalar FogNoLB.fog[7].server[0] rho 0.79804116487503
scalar FogNoLB.fog[7].server[0] congestionRatio 0
scalar FogNoLB.fog[7].server[0] totalJobs 517986
scalar FogNoLB.fog[7].server[0] droppedJobsQueue 1894
scalar FogNoLB.fog[7].server[0] droppedJobsTimout 117
scalar FogNoLB.fog[7].server[0] droppedJobsSLA 0
scalar FogNoLB.fog[7].server[0] droppedJobsTotal 2011
scalar FogNoLB.fog[8].dispatcher localJobs 517040
scalar FogNoLB.fog[8].dispatcher remoteJobs 0
scalar FogNoLB.fog[8].dispatcher probeQueries 0
scalar FogNoLB.fog[8].dispatcher probeAnswers 0
scalar FogNoLB.fog[8].dispatcher droppedJobsSLA 0
scalar FogNoLB.fog[8].dispatcher jobs_class_1 517040
scalar FogNoLB.fog[8].dispatcher localJobs_class_1 517040
scalar FogNoLB.fog[8].server[0] rho 0.79635864496231
scalar FogNoLB.fog[8].server[0] congestionRatio 0
scalar FogNoLB.fog[8].server[0] totalJobs 517040
scalar FogNoLB.fog[8].server[0] droppedJobsQueue 2044
scalar FogNoLB.fog[8].server[0] droppedJobsTimout 127
scalar FogNoLB.fog[8].server[0] droppedJobsSLA 0
scalar FogNoLB.fog[8].server[0] droppedJobsTotal 2171
scalar FogNoLB.fog[9].dispatcher localJobs 517515
scalar FogNoLB.fog[9].dispatcher remoteJobs 0
scalar FogNoLB.fog[9].dispatcher probeQueries 0
scalar FogNoLB.fog[9].dispatcher probeAnswers 0
scalar FogNoLB.fog[9].dispatcher droppedJobsSLA 0
scalar FogNoLB.fog[9].dispatcher jobs_class_1 517515
scalar FogNoLB.fog[9].dispatcher localJobs_class_1 517515
scalar FogNoLB.fog[9].server[0] rho 0.79733389616013
scalar FogNoLB.fog[9].server[0] congestionRatio 0
scalar FogNoLB.fog[9].server[0] totalJobs 517515
scalar FogNoLB.fog[9].server[0] droppedJobsQueue 1832
scalar FogNoLB.fog[9].server[0] droppedJobsTimout 122
scalar FogNoLB.fog[9].server[0] droppedJobsSLA 0
scalar FogNoLB.fog[9].server[0] droppedJobsTotal 1954
scalar FogNoLB.fog[10].dispatcher localJobs 517318
scalar FogNoLB.fog[10].dispatcher remoteJobs 0
scalar FogNoLB.fog[10].dispatcher probeQueries 0
scalar FogNoLB.fog[10].dispatcher probeAnswers 0
scalar FogNoLB.fog[10].dispatcher droppedJobsSLA 0
scalar FogNoLB.fog[10].dispatcher jobs_class_1 517318
scalar FogNoLB.fog[10].dispatcher localJobs_class_1 517318
scalar FogNoLB.fog[10].server[0] rho 0.79699975252151
scalar FogNoLB.fog[10].server[0] congestionRatio 0
scalar FogNoLB.fog[10].server[0] totalJobs 517318
scalar FogNoLB.fog[10].server[0] droppedJobsQueue 1886
scalar FogNoLB.fog[10].server[0] droppedJobsTimout 89
scalar FogNoLB.fog[10].server[0] droppedJobsSLA 0
scalar FogNoLB.fog[10].server[0] droppedJobsTotal 1975
scalar FogNoLB.fog[11].dispatcher localJobs 517438
scalar FogNoLB.fog[11].dispatcher remoteJobs 0
scalar FogNoLB.fog[11].dispatcher probeQueries 0
scalar FogNoLB.fog[11].dispatcher probeAnswers 0
scalar FogNoLB.fog[11].dispatcher droppedJobsSLA 0
scalar FogNoLB.fog[11].dispatcher jobs_class_1 517438
scalar FogNoLB.fog[11].dispatcher localJobs_class_1 517438
scalar FogNoLB.fog[11].server[0] rho 0.79713952541351
scalar FogNoLB.fog[11].server[0] congestionRatio 0
scalar FogNoLB.fog[11].server[0] totalJobs 517438
scalar FogNoLB.fog[11].server[0] droppedJobsQueue 1940
scalar FogNoLB.fog[11].server[0] droppedJobsTimout 133
scalar FogNoLB.fog[11].server[0] droppedJobsSLA 0
scalar FogNoLB.fog[11].server[0] droppedJobsTotal 2073
scalar FogNoLB.fog[12].dispatcher localJobs 515828
scalar FogNoLB.fog[12].dispatcher remoteJobs 0
scalar FogNoLB.fog[12].dispatcher probeQueries 0
scalar FogNoLB.fog[12].dispatcher probeAnswers 0
scalar FogNoLB.fog[12].dispatcher droppedJobsSLA 0
scalar FogNoLB.fog[12].dispatcher jobs_class_1 515828
scalar FogNoLB.fog[12].dispatcher localJobs_class_1 515828
scalar FogNoLB.fog[12].server[0] rho 0.79485714435577
scalar FogNoLB.fog[12].server[0] congestionRatio 0
scalar FogNoLB.fog[12].server[0] totalJobs 515828
scalar FogNoLB.fog[12].server[0] droppedJobsQueue 1770
scalar FogNoLB.fog[12].server[0] droppedJobsTimout 115
scalar FogNoLB.fog[12].server[0] droppedJobsSLA 0
scalar FogNoLB.fog[12].server[0] droppedJobsTotal 1885
scalar FogNoLB.fog[13].dispatcher localJobs 516291
scalar FogNoLB.fog[13].dispatcher remoteJobs 0
scalar FogNoLB.fog[13].dispatcher probeQueries 0
scalar FogNoLB.fog[13].dispatcher probeAnswers 0
scalar FogNoLB.fog[13].dispatcher droppedJobsSLA 0
scalar FogNoLB.fog[13].dispatcher jobs_class_1 516291
scalar FogNoLB.fog[13].dispatcher localJobs_class_1 516291
scalar FogNoLB.fog[13].server[0] rho 0.7953092455864
scalar FogNoLB.fog[13].server[0] congestionRatio 0
scalar FogNoLB.fog[13].server[0] totalJobs 516291
scalar FogNoLB.fog[13].server[0] droppedJobsQueue 1928
scalar FogNoLB.fog[13].server[0] droppedJobsTimout 116
scalar FogNoLB.fog[13].server[0] droppedJobsSLA 0
scalar FogNoLB.fog[13].server[0] droppedJobsTotal 2044
scalar FogNoLB.fog[14].dispatcher localJobs 518384
scalar FogNoLB.fog[14].dispatcher remoteJobs 0
scalar FogNoLB.fog[14].dispatcher probeQueries 0
scalar FogNoLB.fog[14].dispatcher probeAnswers 0
scalar FogNoLB.fog[14].dispatcher droppedJobsSLA 0
scalar FogNoLB.fog[14].dispatcher jobs_class_1 518384
scalar FogNoLB.fog[14].dispatcher localJobs_class_1 518384
scalar FogNoLB.fog[14].server[0] rho 0.79855394363403
scalar FogNoLB.fog[14].server[0] congestionRatio 0
scalar FogNoLB.fog[14].server[0] totalJobs 518384
scalar FogNoLB.fog[14].server[0] droppedJobsQueue 1933
scalar FogNoLB.fog[14].server[0] droppedJobsTimout 110
scalar FogNoLB.fog[14].server[0] droppedJobsSLA 0
scalar FogNoLB.fog[14].server[0] droppedJobsTotal 2043
scalar FogNoLB.fog[15].dispatcher localJobs 516347
scalar FogNoLB.fog[15].dispatcher remoteJobs 0
scalar FogNoLB.fog[15].dispatcher probeQueries 0
scalar FogNoLB.fog[15].dispatcher probeAnswers 0
scalar FogNoLB.fog[15].dispatcher droppedJobsSLA 0
scalar FogNoLB.fog[15].dispatcher jobs_class_1 516347
scalar FogNoLB.fog[15].dispatcher localJobs_class_1 516347
scalar FogNoLB.fog[15].server[0] rho 0.79559177160263
scalar FogNoLB.fog[15].server[0] congestionRatio 0
scalar FogNoLB.fog[15].server[0] totalJobs 516347
scalar FogNoLB.fog[15].server[0] droppedJobsQueue 1826
scalar FogNoLB.fog[15].server[0] droppedJobsTimout 118
scalar FogNoLB.fog[15].server[0] droppedJobsSLA 0
scalar FogNoLB.fog[15].server[0] droppedJobsTotal 1944
scalar FogNoLB.fog[16].dispatcher localJobs 516526
scalar FogNoLB.fog[16].dispatcher remoteJobs 0
scalar FogNoLB.fog[16].dispatcher probeQueries 0
scalar FogNoLB.fog[16].dispatcher probeAnswers 0
scalar FogNoLB.fog[16].dispatcher droppedJobsSLA 0
scalar FogNoLB.fog[16].dispatcher jobs_class_1 516526
scalar FogNoLB.fog[16].dispatcher localJobs_class_1 516526
scalar FogNoLB.fog[16].server[0] rho 0.79609280824661
scalar FogNoLB.fog[16].server[0] congestionRatio 0
scalar FogNoLB.fog[16].server[0] totalJobs 516526
scalar FogNoLB.fog[16].server[0] droppedJobsQueue 1704
scalar FogNoLB.fog[16].server[0] droppedJobsTimout 109
scalar FogNoLB.fog[16].server[0] droppedJobsSLA 0
scalar FogNoLB.fog[16].server[0] droppedJobsTotal 1813
scalar FogNoLB.fog[17].dispatcher localJobs 516633
scalar FogNoLB.fog[17].dispatcher remoteJobs 0
scalar FogNoLB.fog[17].dispatcher probeQueries 0
scalar FogNoLB.fog[17].dispatcher probeAnswers 0
scalar FogNoLB.fog[17].dispatcher droppedJobsSLA 0
scalar FogNoLB.fog[17].dispatcher jobs_class_1 516633
scalar FogNoLB.fog[17].dispatcher localJobs_class_1 516633
scalar FogNoLB.fog[17].server[0] rho 0.79609137773514
scalar FogNoLB.fog[17].server[0] congestionRatio 0
scalar FogNoLB.fog[17].server[0] totalJobs 516633
scalar FogNoLB.fog[17].server[0] droppedJobsQueue 1819
scalar FogNoLB.fog[17].server[0] droppedJobsTimout 114
scalar FogNoLB.fog[17].server[0] droppedJobsSLA 0
scalar FogNoLB.fog[17].server[0] droppedJobsTotal 1933
scalar FogNoLB.fog[18].dispatcher localJobs 516986
scalar FogNoLB.fog[18].dispatcher remoteJobs 0
scalar FogNoLB.fog[18].dispatcher probeQueries 0
scalar FogNoLB.fog[18].dispatcher probeAnswers 0
scalar FogNoLB.fog[18].dispatcher droppedJobsSLA 0
scalar FogNoLB.fog[18].dispatcher jobs_class_1 516986
scalar FogNoLB.fog[18].dispatcher localJobs_class_1 516986
scalar FogNoLB.fog[18].server[0] rho 0.79633128643036
scalar FogNoLB.fog[18].server[0] congestionRatio 0
scalar FogNoLB.fog[18].server[0] totalJobs 516986
scalar FogNoLB.fog[18].server[0] droppedJobsQueue 1993
scalar FogNoLB.fog[18].server[0] droppedJobsTimout 110
scalar FogNoLB.fog[18].server[0] droppedJobsSLA 0
scalar FogNoLB.fog[18].server[0] droppedJobsTotal 2103
scalar FogNoLB.fog[19].dispatcher localJobs 517703
scalar FogNoLB.fog[19].dispatcher remoteJobs 0
scalar FogNoLB.fog[19].dispatcher probeQueries 0
scalar FogNoLB.fog[19].dispatcher probeAnswers 0
scalar FogNoLB.fog[19].dispatcher droppedJobsSLA 0
scalar FogNoLB.fog[19].dispatcher jobs_class_1 517703
scalar FogNoLB.fog[19].dispatcher localJobs_class_1 517703
scalar FogNoLB.fog[19].server[0] rho 0.79765945672989
scalar FogNoLB.fog[19].server[0] congestionRatio 0
scalar FogNoLB.fog[19].server[0] totalJobs 517703
scalar FogNoLB.fog[19].server[0] droppedJobsQueue 1845
scalar FogNoLB.fog[19].server[0] droppedJobsTimout 114
scalar FogNoLB.fog[19].server[0] droppedJobsSLA 0
scalar FogNoLB.fog[19].server[0] droppedJobsTotal 1959
scalar FogNoLB.fog[20].dispatcher localJobs 516186
scalar FogNoLB.fog[20].dispatcher remoteJobs 0
scalar FogNoLB.fog[20].dispatcher probeQueries 0
scalar FogNoLB.fog[20].dispatcher probeAnswers 0
scalar FogNoLB.fog[20].dispatcher droppedJobsSLA 0
scalar FogNoLB.fog[20].dispatcher jobs_class_1 516186
scalar FogNoLB.fog[20].dispatcher localJobs_class_1 516186
scalar FogNoLB.fog[20].server[0] rho 0.79516345262527
scalar FogNoLB.fog[20].server[0] congestionRatio 0
scalar FogNoLB.fog[20].server[0] totalJobs 516186
scalar FogNoLB.fog[20].server[0] droppedJobsQueue 1936
scalar FogNoLB.fog[20].server[0] droppedJobsTimout 119
scalar FogNoLB.fog[20].server[0] droppedJobsSLA 0
scalar FogNoLB.fog[20].server[0] droppedJobsTotal 2055
scalar FogNoLB.fog[21].dispatcher localJobs 516353
scalar FogNoLB.fog[21].dispatcher remoteJobs 0
scalar FogNoLB.fog[21].dispatcher probeQueries 0
scalar FogNoLB.fog[21].dispatcher probeAnswers 0
scalar FogNoLB.fog[21].dispatcher droppedJobsSLA 0
scalar FogNoLB.fog[21].dispatcher jobs_class_1 516353
scalar FogNoLB.fog[21].dispatcher localJobs_class_1 516353
scalar FogNoLB.fog[21].server[0] rho 0.79565978050232
scalar FogNoLB.fog[21].server[0] congestionRatio 0
scalar FogNoLB.fog[21].server[0] totalJobs 516353
scalar FogNoLB.fog[21].server[0] droppedJobsQueue 1793
scalar FogNoLB.fog[21].server[0] droppedJobsTimout 97
scalar FogNoLB.fog[21].server[0] droppedJobsSLA 0
scalar FogNoLB.fog[21].server[0] droppedJobsTotal 1890
scalar FogNoLB.fog[22].dispatcher localJobs 517014
scalar FogNoLB.fog[22].dispatcher remoteJobs 0
scalar FogNoLB.fog[22].dispatcher probeQueries 0
scalar FogNoLB.fog[22].dispatcher probeAnswers 0
scalar FogNoLB.fog[22].dispatcher droppedJobsSLA 0
scalar FogNoLB.fog[22].dispatcher jobs_class_1 517014
scalar FogNoLB.fog[22].dispatcher localJobs_class_1 517014
scalar FogNoLB.fog[22].server[0] rho 0.79657536745071
scalar FogNoLB.fog[22].server[0] congestionRatio 0
scalar FogNoLB.fog[22].server[0] totalJobs 517014
scalar FogNoLB.fog[22].server[0] droppedJobsQueue 1891
scalar FogNoLB.fog[22].server[0] droppedJobsTimout 107
scalar FogNoLB.fog[22].server[0] droppedJobsSLA 0
scalar FogNoLB.fog[22].server[0] droppedJobsTotal 1998
scalar FogNoLB.fog[23].dispatcher localJobs 518233
scalar FogNoLB.fog[23].dispatcher remoteJobs 0
scalar FogNoLB.fog[23].dispatcher probeQueries 0
scalar FogNoLB.fog[23].dispatcher probeAnswers 0
scalar FogNoLB.fog[23].dispatcher droppedJobsSLA 0
scalar FogNoLB.fog[23].dispatcher jobs_class_1 518233
scalar FogNoLB.fog[23].dispatcher localJobs_class_1 518233
scalar FogNoLB.fog[23].server[0] rho 0.79839092493057
scalar FogNoLB.fog[23].server[0] congestionRatio 0
scalar FogNoLB.fog[23].server[0] totalJobs 518233
scalar FogNoLB.fog[23].server[0] droppedJobsQueue 1909
scalar FogNoLB.fog[23].server[0] droppedJobsTimout 113
scalar FogNoLB.fog[23].server[0] droppedJobsSLA 0
scalar FogNoLB.fog[23].server[0] droppedJobsTotal 2022
scalar FogNoLB.fog[24].dispatcher localJobs 517921
scalar FogNoLB.fog[24].dispatcher remoteJobs 0
scalar FogNoLB.fog[24].dispatcher probeQueries 0
scalar FogNoLB.fog[24].dispatcher probeAnswers 0
scalar FogNoLB.fog[24].dispatcher droppedJobsSLA 0
scalar FogNoLB.fog[24].dispatcher jobs_class_1 517921
scalar FogNoLB.fog[24].dispatcher localJobs_class_1 517921
scalar FogNoLB.fog[24].server[0] rho 0.79777598381042
scalar FogNoLB.fog[24].server[0] congestionRatio 0
scalar FogNoLB.fog[24].server[0] totalJobs 517921
scalar FogNoLB.fog[24].server[0] droppedJobsQueue 1997
scalar FogNoLB.fog[24].server[0] droppedJobsTimout 116
scalar FogNoLB.fog[24].server[0] droppedJobsSLA 0
scalar FogNoLB.fog[24].server[0] droppedJobsTotal 2113
scalar FogNoLB.fog[25].dispatcher localJobs 517143
scalar FogNoLB.fog[25].dispatcher remoteJobs 0
scalar FogNoLB.fog[25].dispatcher probeQueries 0
scalar FogNoLB.fog[25].dispatcher probeAnswers 0
scalar FogNoLB.fog[25].dispatcher droppedJobsSLA 0
scalar FogNoLB.fog[25].dispatcher jobs_class_1 517143
scalar FogNoLB.fog[25].dispatcher localJobs_class_1 517143
scalar FogNoLB.fog[25].server[0] rho 0.79685187339783
scalar FogNoLB.fog[25].server[0] congestionRatio 0
scalar FogNoLB.fog[25].server[0] totalJobs 517143
scalar FogNoLB.fog[25].server[0] droppedJobsQueue 1806
scalar FogNoLB.fog[25].server[0] droppedJobsTimout 119
scalar FogNoLB.fog[25].server[0] droppedJobsSLA 0
scalar FogNoLB.fog[25].server[0] droppedJobsTotal 1925
scalar FogNoLB.fog[26].dispatcher localJobs 517810
scalar FogNoLB.fog[26].dispatcher remoteJobs 0
scalar FogNoLB.fog[26].dispatcher probeQueries 0
scalar FogNoLB.fog[26].dispatcher probeAnswers 0
scalar FogNoLB.fog[26].dispatcher droppedJobsSLA 0
scalar FogNoLB.fog[26].dispatcher jobs_class_1 517810
scalar FogNoLB.fog[26].dispatcher localJobs_class_1 517810
scalar FogNoLB.fog[26].server[0] rho 0.79770809412003
scalar FogNoLB.fog[26].server[0] congestionRatio 0
scalar FogNoLB.fog[26].server[0] totalJobs 517810
scalar FogNoLB.fog[26].server[0] droppedJobsQueue 1936
scalar FogNoLB.fog[26].server[0] droppedJobsTimout 121
scalar FogNoLB.fog[26].server[0] droppedJobsSLA 0
scalar FogNoLB.fog[26].server[0] droppedJobsTotal 2057
scalar FogNoLB.fog[27].dispatcher localJobs 517826
scalar FogNoLB.fog[27].dispatcher remoteJobs 0
scalar FogNoLB.fog[27].dispatcher probeQueries 0
scalar FogNoLB.fog[27].dispatcher probeAnswers 0
scalar FogNoLB.fog[27].dispatcher droppedJobsSLA 0
scalar FogNoLB.fog[27].dispatcher jobs_class_1 517826
scalar FogNoLB.fog[27].dispatcher localJobs_class_1 517826
scalar FogNoLB.fog[27].server[0] rho 0.79774361848831
scalar FogNoLB.fog[27].server[0] congestionRatio 0
scalar FogNoLB.fog[27].server[0] totalJobs 517826
scalar FogNoLB.fog[27].server[0] droppedJobsQueue 1900
scalar FogNoLB.fog[27].server[0] droppedJobsTimout 118
scalar FogNoLB.fog[27].server[0] droppedJobsSLA 0
scalar FogNoLB.fog[27].server[0] droppedJobsTotal 2018
scalar FogNoLB.fog[28].dispatcher localJobs 516579
scalar FogNoLB.fog[28].dispatcher remoteJobs 0
scalar FogNoLB.fog[28].dispatcher probeQueries 0
scalar FogNoLB.fog[28].dispatcher probeAnswers 0
scalar FogNoLB.fog[28].dispatcher droppedJobsSLA 0
scalar FogNoLB.fog[28].dispatcher jobs_class_1 516579
scalar FogNoLB.fog[28].dispatcher localJobs_class_1 516579
scalar FogNoLB.fog[28].server[0] rho 0.79606652259827
scalar FogNoLB.fog[28].server[0] congestionRatio 0
scalar FogNoLB.fog[28].server[0] totalJobs 516579
scalar FogNoLB.fog[28].server[0] droppedJobsQueue 1741
scalar FogNoLB.fog[28].server[0] droppedJobsTimout 99
scalar FogNoLB.fog[28].server[0] droppedJobsSLA 0
scalar FogNoLB.fog[28].server[0] droppedJobsTotal 1840
scalar FogNoLB.fog[29].dispatcher localJobs 518352
scalar FogNoLB.fog[29].dispatcher remoteJobs 0
scalar FogNoLB.fog[29].dispatcher probeQueries 0
scalar FogNoLB.fog[29].dispatcher probeAnswers 0
scalar FogNoLB.fog[29].dispatcher droppedJobsSLA 0
scalar FogNoLB.fog[29].dispatcher jobs_class_1 518352
scalar FogNoLB.fog[29].dispatcher localJobs_class_1 518352
scalar FogNoLB.fog[29].server[0] rho 0.79822415113449
scalar FogNoLB.fog[29].server[0] congestionRatio 0
scalar FogNoLB.fog[29].server[0] totalJobs 518352
scalar FogNoLB.fog[29].server[0] droppedJobsQueue 2135
scalar FogNoLB.fog[29].server[0] droppedJobsTimout 118
scalar FogNoLB.fog[29].server[0] droppedJobsSLA 0
scalar FogNoLB.fog[29].server[0] droppedJobsTotal 2253
scalar FogNoLB.fog[30].dispatcher localJobs 516332
scalar FogNoLB.fog[30].dispatcher remoteJobs 0
scalar FogNoLB.fog[30].dispatcher probeQueries 0
scalar FogNoLB.fog[30].dispatcher probeAnswers 0
scalar FogNoLB.fog[30].dispatcher droppedJobsSLA 0
scalar FogNoLB.fog[30].dispatcher jobs_class_1 516332
scalar FogNoLB.fog[30].dispatcher localJobs_class_1 516332
scalar FogNoLB.fog[30].server[0] rho 0.79556274414062
scalar FogNoLB.fog[30].server[0] congestionRatio 0
scalar FogNoLB.fog[30].server[0] totalJobs 516332
scalar FogNoLB.fog[30].server[0] droppedJobsQueue 1846
scalar FogNoLB.fog[30].server[0] droppedJobsTimout 110
scalar FogNoLB.fog[30].server[0] droppedJobsSLA 0
scalar FogNoLB.fog[30].server[0] droppedJobsTotal 1956
scalar FogNoLB.fog[31].dispatcher localJobs 516024
scalar FogNoLB.fog[31].dispatcher remoteJobs 0
scalar FogNoLB.fog[31].dispatcher probeQueries 0
scalar FogNoLB.fog[31].dispatcher probeAnswers 0
scalar FogNoLB.fog[31].dispatcher droppedJobsSLA 0
scalar FogNoLB.fog[31].dispatcher jobs_class_1 516024
scalar FogNoLB.fog[31].dispatcher localJobs_class_1 516024
scalar FogNoLB.fog[31].server[0] rho 0.79533529281616
scalar FogNoLB.fog[31].server[0] congestionRatio 0
scalar FogNoLB.fog[31].server[0] totalJobs 516024
scalar FogNoLB.fog[31].server[0] droppedJobsQueue 1692
scalar FogNoLB.fog[31].server[0] droppedJobsTimout 109
scalar FogNoLB.fog[31].server[0] droppedJobsSLA 0
scalar FogNoLB.fog[31].server[0] droppedJobsTotal 1801
scalar FogNoLB.fog[32].dispatcher localJobs 516717
scalar FogNoLB.fog[32].dispatcher remoteJobs 0
scalar FogNoLB.fog[32].dispatcher probeQueries 0
scalar FogNoLB.fog[32].dispatcher probeAnswers 0
scalar FogNoLB.fog[32].dispatcher droppedJobsSLA 0
scalar FogNoLB.fog[32].dispatcher jobs_class_1 516717
scalar FogNoLB.fog[32].dispatcher localJobs_class_1 516717
scalar FogNoLB.fog[32].server[0] rho 0.79638856649399
scalar FogNoLB.fog[32].server[0] congestionRatio 0
scalar FogNoLB.fog[32].server[0] totalJobs 516717
scalar FogNoLB.fog[32].server[0] droppedJobsQueue 1713
scalar FogNoLB.fog[32].server[0] droppedJobsTimout 96
scalar FogNoLB.fog[32].server[0] droppedJobsSLA 0
scalar FogNoLB.fog[32].server[0] droppedJobsTotal 1809
scalar FogNoLB.fog[33].dispatcher localJobs 517911
scalar FogNoLB.fog[33].dispatcher remoteJobs 0
scalar FogNoLB.fog[33].dispatcher probeQueries 0
scalar FogNoLB.fog[33].dispatcher probeAnswers 0
scalar FogNoLB.fog[33].dispatcher droppedJobsSLA 0
scalar FogNoLB.fog[33].dispatcher jobs_class_1 517911
scalar FogNoLB.fog[33].dispatcher localJobs_class_1 517911
scalar FogNoLB.fog[33].server[0] rho 0.79792845249176
scalar FogNoLB.fog[33].server[0] congestionRatio 0
scalar FogNoLB.fog[33].server[0] totalJobs 517911
scalar FogNoLB.fog[33].server[0] droppedJobsQueue 1878
scalar FogNoLB.fog[33].server[0] droppedJobsTimout 132
scalar FogNoLB.fog[33].server[0] droppedJobsSLA 0
scalar FogNoLB.fog[33].server[0] droppedJobsTotal 2010
scalar FogNoLB.fog[34].dispatcher localJobs 517403
scalar FogNoLB.fog[34].dispatcher remoteJobs 0
scalar FogNoLB.fog[34].dispatcher probeQueries 0
scalar FogNoLB.fog[34].dispatcher probeAnswers 0
scalar FogNoLB.fog[34].dispatcher droppedJobsSLA 0
scalar FogNoLB.fog[34].dispatcher jobs_class_1 517403
scalar FogNoLB.fog[34].dispatcher localJobs_class_1 517403
scalar FogNoLB.fog[34].server[0] rho 0.7971516251564
scalar FogNoLB.fog[34].server[0] congestionRatio 0
scalar FogNoLB.fog[34].server[0] totalJobs 517403
scalar FogNoLB.fog[34].server[0] droppedJobsQueue 1883
scalar FogNoLB.fog[34].server[0] droppedJobsTimout 123
scalar FogNoLB.fog[34].server[0] droppedJobsSLA 0
scalar FogNoLB.fog[34].server[0] droppedJobsTotal 2006
scalar FogNoLB.fog[35].dispatcher localJobs 517378
scalar FogNoLB.fog[35].dispatcher remoteJobs 0
scalar FogNoLB.fog[35].dispatcher probeQueries 0
scalar FogNoLB.fog[35].dispatcher probeAnswers 0
scalar FogNoLB.fog[35].dispatcher droppedJobsSLA 0
scalar FogNoLB.fog[35].dispatcher jobs_class_1 517378
scalar FogNoLB.fog[35].dispatcher localJobs_class_1 517378
scalar FogNoLB.fog[35].server[0] rho 0.79699301719666
scalar FogNoLB.fog[35].server[0] congestionRatio 0
scalar FogNoLB.fog[35].server[0] totalJobs 517378
scalar FogNoLB.fog[35].server[0] droppedJobsQueue 1949
scalar FogNoLB.fog[35].server[0] droppedJobsTimout 124
scalar FogNoLB.fog[35].server[0] droppedJobsSLA 0
scalar FogNoLB.fog[35].server[0] droppedJobsTotal 2073
scalar FogNoLB.fog[36].dispatcher localJobs 517479
scalar FogNoLB.fog[36].dispatcher remoteJobs 0
scalar FogNoLB.fog[36].dispatcher probeQueries 0
scalar FogNoLB.fog[36].dispatcher probeAnswers 0
scalar FogNoLB.fog[36].dispatcher droppedJobsSLA 0
scalar FogNoLB.fog[36].dispatcher jobs_class_1 517479
scalar FogNoLB.fog[36].dispatcher localJobs_class_1 517479
scalar FogNoLB.fog[36].server[0] rho 0.79718953371048
scalar FogNoLB.fog[36].server[0] congestionRatio 0
scalar FogNoLB.fog[36].server[0] totalJobs 517479
scalar FogNoLB.fog[36].server[0] droppedJobsQueue 1921
scalar FogNoLB.fog[36].server[0] droppedJobsTimout 141
scalar FogNoLB.fog[36].server[0] droppedJobsSLA 0
scalar FogNoLB.fog[36].server[0] droppedJobsTotal 2062
scalar FogNoLB.fog[37].dispatcher localJobs 517315
scalar FogNoLB.fog[37].dispatcher remoteJobs 0
scalar FogNoLB.fog[37].dispatcher probeQueries 0
scalar FogNoLB.fog[37].dispatcher probeAnswers 0
scalar FogNoLB.fog[37].dispatcher droppedJobsSLA 0
scalar FogNoLB.fog[37].dispatcher jobs_class_1 517315
scalar FogNoLB.fog[37].dispatcher localJobs_class_1 517315
scalar FogNoLB.fog[37].server[0] rho 0.79692792892456
scalar FogNoLB.fog[37].server[0] congestionRatio 0
scalar FogNoLB.fog[37].server[0] totalJobs 517315
scalar FogNoLB.fog[37].server[0] droppedJobsQueue 1928
scalar FogNoLB.fog[37].server[0] droppedJobsTimout 116
scalar FogNoLB.fog[37].server[0] droppedJobsSLA 0
scalar FogNoLB.fog[37].server[0] droppedJobsTotal 2044
scalar FogNoLB.fog[38].dispatcher localJobs 515637
scalar FogNoLB.fog[38].dispatcher remoteJobs 0
scalar FogNoLB.fog[38].dispatcher probeQueries 0
scalar FogNoLB.fog[38].dispatcher probeAnswers 0
scalar FogNoLB.fog[38].dispatcher droppedJobsSLA 0
scalar FogNoLB.fog[38].dispatcher jobs_class_1 515637
scalar FogNoLB.fog[38].dispatcher localJobs_class_1 515637
scalar FogNoLB.fog[38].server[0] rho 0.79466807842255
scalar FogNoLB.fog[38].server[0] congestionRatio 0
scalar FogNoLB.fog[38].server[0] totalJobs 515637
scalar FogNoLB.fog[38].server[0] droppedJobsQueue 1722
scalar FogNoLB.fog[38].server[0] droppedJobsTimout 106
scalar FogNoLB.fog[38].server[0] droppedJobsSLA 0
scalar FogNoLB.fog[38].server[0] droppedJobsTotal 1828
scalar FogNoLB.fog[39].dispatcher localJobs 516903
scalar FogNoLB.fog[39].dispatcher remoteJobs 0
scalar FogNoLB.fog[39].dispatcher probeQueries 0
scalar FogNoLB.fog[39].dispatcher probeAnswers 0
scalar FogNoLB.fog[39].dispatcher droppedJobsSLA 0
scalar FogNoLB.fog[39].dispatcher jobs_class_1 516903
scalar FogNoLB.fog[39].dispatcher localJobs_class_1 516903
scalar FogNoLB.fog[39].server[0] rho 0.79624855518341
scalar FogNoLB.fog[39].server[0] congestionRatio 0
scalar FogNoLB.fog[39].server[0] totalJobs 516903
scalar FogNoLB.fog[39].server[0] droppedJobsQueue 1943
scalar FogNoLB.fog[39].server[0] droppedJobsTimout 100
scalar FogNoLB.fog[39].server[0] droppedJobsSLA 0
scalar FogNoLB.fog[39].server[0] droppedJobsTotal 2043
scalar FogNoLB.fog[40].dispatcher localJobs 517926
scalar FogNoLB.fog[40].dispatcher remoteJobs 0
scalar FogNoLB.fog[40].dispatcher probeQueries 0
scalar FogNoLB.fog[40].dispatcher probeAnswers 0
scalar FogNoLB.fog[40].dispatcher droppedJobsSLA 0
scalar FogNoLB.fog[40].dispatcher jobs_class_1 517926
scalar FogNoLB.fog[40].dispatcher localJobs_class_1 517926
scalar FogNoLB.fog[40].server[0] rho 0.79777538776398
scalar FogNoLB.fog[40].server[0] congestionRatio 0
scalar FogNoLB.fog[40].server[0] totalJobs 517926
scalar FogNoLB.fog[40].server[0] droppedJobsQueue 2017
scalar FogNoLB.fog[40].server[0] droppedJobsTimout 120
scalar FogNoLB.fog[40].server[0] droppedJobsSLA 0
scalar FogNoLB.fog[40].server[0] droppedJobsTotal 2137
scalar FogNoLB.fog[41].dispatcher localJobs 516505
scalar FogNoLB.fog[41].dispatcher remoteJobs 0
scalar FogNoLB.fog[41].dispatcher probeQueries 0
scalar FogNoLB.fog[41].dispatcher probeAnswers 0
scalar FogNoLB.fog[41].dispatcher droppedJobsSLA 0
scalar FogNoLB.fog[41].dispatcher jobs_class_1 516505
scalar FogNoLB.fog[41].dispatcher localJobs_class_1 516505
scalar FogNoLB.fog[41].server[0] rho 0.79584223031998
scalar FogNoLB.fog[41].server[0] congestionRatio 0
scalar FogNoLB.fog[41].server[0] totalJobs 516505
scalar FogNoLB.fog[41].server[0] droppedJobsQueue 1816
scalar FogNoLB.fog[41].server[0] droppedJobsTimout 119
scalar FogNoLB.fog[41].server[0] droppedJobsSLA 0
scalar FogNoLB.fog[41].server[0] droppedJobsTotal 1935
scalar FogNoLB.fog[42].dispatcher localJobs 517283
scalar FogNoLB.fog[42].dispatcher remoteJobs 0
scalar FogNoLB.fog[42].dispatcher probeQueries 0
scalar FogNoLB.fog[42].dispatcher probeAnswers 0
scalar FogNoLB.fog[42].dispatcher droppedJobsSLA 0
scalar FogNoLB.fog[42].dispatcher jobs_class_1 517283
scalar FogNoLB.fog[42].dispatcher localJobs_class_1 517283
scalar FogNoLB.fog[42].server[0] rho 0.79685842990875
scalar FogNoLB.fog[42].server[0] congestionRatio 0
scalar FogNoLB.fog[42].server[0] totalJobs 517283
scalar FogNoLB.fog[42].server[0] droppedJobsQueue 1969
scalar FogNoLB.fog[42].server[0] droppedJobsTimout 113
scalar FogNoLB.fog[42].server[0] droppedJobsSLA 0
scalar FogNoLB.fog[42].server[0] droppedJobsTotal 2082
scalar FogNoLB.fog[43].dispatcher localJobs 516421
scalar FogNoLB.fog[43].dispatcher remoteJobs 0
scalar FogNoLB.fog[43].dispatcher probeQueries 0
scalar FogNoLB.fog[43].dispatcher probeAnswers 0
scalar FogNoLB.fog[43].dispatcher droppedJobsSLA 0
scalar FogNoLB.fog[43].dispatcher jobs_class_1 516421
scalar FogNoLB.fog[43].dispatcher localJobs_class_1 516421
scalar FogNoLB.fog[43].server[0] rho 0.79558366537094
scalar FogNoLB.fog[43].server[0] congestionRatio 0
scalar FogNoLB.fog[43].server[0] totalJobs 516421
scalar FogNoLB.fog[43].server[0] droppedJobsQueue 1907
scalar FogNoLB.fog[43].server[0] droppedJobsTimout 113
scalar FogNoLB.fog[43].server[0] droppedJobsSLA 0
scalar FogNoLB.fog[43].server[0] droppedJobsTotal 2020
scalar FogNoLB.fog[44].dispatcher localJobs 519125
scalar FogNoLB.fog[44].dispatcher remoteJobs 0
scalar FogNoLB.fog[44].dispatcher probeQueries 0
scalar FogNoLB.fog[44].dispatcher probeAnswers 0
scalar FogNoLB.fog[44].dispatcher droppedJobsSLA 0
scalar FogNoLB.fog[44].dispatcher jobs_class_1 519125
scalar FogNoLB.fog[44].dispatcher localJobs_class_1 519125
scalar FogNoLB.fog[44].server[0] rho 0.79971504211426
scalar FogNoLB.fog[44].server[0] congestionRatio 0
scalar FogNoLB.fog[44].server[0] totalJobs 519125
scalar FogNoLB.fog[44].server[0] droppedJobsQueue 1947
scalar FogNoLB.fog[44].server[0] droppedJobsTimout 121
scalar FogNoLB.fog[44].server[0] droppedJobsSLA 0
scalar FogNoLB.fog[44].server[0] droppedJobsTotal 2068
scalar FogNoLB.fog[45].dispatcher localJobs 516096
scalar FogNoLB.fog[45].dispatcher remoteJobs 0
scalar FogNoLB.fog[45].dispatcher probeQueries 0
scalar FogNoLB.fog[45].dispatcher probeAnswers 0
scalar FogNoLB.fog[45].dispatcher droppedJobsSLA 0
scalar FogNoLB.fog[45].dispatcher jobs_class_1 516096
scalar FogNoLB.fog[45].dispatcher localJobs_class_1 516096
scalar FogNoLB.fog[45].server[0] rho 0.79532635211945
scalar FogNoLB.fog[45].server[0] congestionRatio 0
scalar FogNoLB.fog[45].server[0] totalJobs 516096
scalar FogNoLB.fog[45].server[0] droppedJobsQueue 1765
scalar FogNoLB.fog[45].server[0] droppedJobsTimout 110
scalar FogNoLB.fog[45].server[0] droppedJobsSLA 0
scalar FogNoLB.fog[45].server[0] droppedJobsTotal 1875
scalar FogNoLB.fog[46].dispatcher localJobs 517070
scalar FogNoLB.fog[46].dispatcher remoteJobs 0
scalar FogNoLB.fog[46].dispatcher probeQueries 0
scalar FogNoLB.fog[46].dispatcher probeAnswers 0
scalar FogNoLB.fog[46].dispatcher droppedJobsSLA 0
scalar FogNoLB.fog[46].dispatcher jobs_class_1 517070
scalar FogNoLB.fog[46].dispatcher localJobs_class_1 517070
scalar FogNoLB.fog[46].server[0] rho 0.79674059152603
scalar FogNoLB.fog[46].server[0] congestionRatio 0
scalar FogNoLB.fog[46].server[0] totalJobs 517070
scalar FogNoLB.fog[46].server[0] droppedJobsQueue 1797
scalar FogNoLB.fog[46].server[0] droppedJobsTimout 118
scalar FogNoLB.fog[46].server[0] droppedJobsSLA 0
scalar FogNoLB.fog[46].server[0] droppedJobsTotal 1915
scalar FogNoLB.fog[47].dispatcher localJobs 518164
scalar FogNoLB.fog[47].dispatcher remoteJobs 0
scalar FogNoLB.fog[47].dispatcher probeQueries 0
scalar FogNoLB.fog[47].dispatcher probeAnswers 0
scalar FogNoLB.fog[47].dispatcher droppedJobsSLA 0
scalar FogNoLB.fog[47].dispatcher jobs_class_1 518164
scalar FogNoLB.fog[47].dispatcher localJobs_class_1 518164
scalar FogNoLB.fog[47].server[0] rho 0.79836398363113
scalar FogNoLB.fog[47].server[0] congestionRatio 0
scalar FogNoLB.fog[47].server[0] totalJobs 518164
scalar FogNoLB.fog[47].server[0] droppedJobsQueue 1851
scalar FogNoLB.fog[47].server[0] droppedJobsTimout 110
scalar FogNoLB.fog[47].server[0] droppedJobsSLA 0
scalar FogNoLB.fog[47].server[0] droppedJobsTotal 1961
scalar FogNoLB.fog[48].dispatcher localJobs 515556
scalar FogNoLB.fog[48].dispatcher remoteJobs 0
scalar FogNoLB.fog[48].dispatcher probeQueries 0
scalar FogNoLB.fog[48].dispatcher probeAnswers 0
scalar FogNoLB.fog[48].dispatcher droppedJobsSLA 0
scalar FogNoLB.fog[48].dispatcher jobs_class_1 515556
scalar FogNoLB.fog[48].dispatcher localJobs_class_1 515556
scalar FogNoLB.fog[48].server[0] rho 0.79443556070328
scalar FogNoLB.fog[48].server[0] congestionRatio 0
scalar FogNoLB.fog[48].server[0] totalJobs 515556
scalar FogNoLB.fog[48].server[0] droppedJobsQueue 1798
scalar FogNoLB.fog[48].server[0] droppedJobsTimout 106
scalar FogNoLB.fog[48].server[0] droppedJobsSLA 0
scalar FogNoLB.fog[48].server[0] droppedJobsTotal 1904
scalar FogNoLB.fog[49].dispatcher localJobs 517177
scalar FogNoLB.fog[49].dispatcher remoteJobs 0
scalar FogNoLB.fog[49].dispatcher probeQueries 0
scalar FogNoLB.fog[49].dispatcher probeAnswers 0
scalar FogNoLB.fog[49].dispatcher droppedJobsSLA 0
scalar FogNoLB.fog[49].dispatcher jobs_class_1 517177
scalar FogNoLB.fog[49].dispatcher localJobs_class_1 517177
scalar FogNoLB.fog[49].server[0] rho 0.79685521125793
scalar FogNoLB.fog[49].server[0] congestionRatio 0
scalar FogNoLB.fog[49].server[0] totalJobs 517177
scalar FogNoLB.fog[49].server[0] droppedJobsQueue 1856
scalar FogNoLB.fog[49].server[0] droppedJobsTimout 104
scalar FogNoLB.fog[49].server[0] droppedJobsSLA 0
scalar FogNoLB.fog[49].server[0] droppedJobsTotal 1960
scalar FogNoLB.fog[50].dispatcher localJobs 517068
scalar FogNoLB.fog[50].dispatcher remoteJobs 0
scalar FogNoLB.fog[50].dispatcher probeQueries 0
scalar FogNoLB.fog[50].dispatcher probeAnswers 0
scalar FogNoLB.fog[50].dispatcher droppedJobsSLA 0
scalar FogNoLB.fog[50].dispatcher jobs_class_1 517068
scalar FogNoLB.fog[50].dispatcher localJobs_class_1 517068
scalar FogNoLB.fog[50].server[0] rho 0.79666298627853
scalar FogNoLB.fog[50].server[0] congestionRatio 0
scalar FogNoLB.fog[50].server[0] totalJobs 517068
scalar FogNoLB.fog[50].server[0] droppedJobsQueue 1863
scalar FogNoLB.fog[50].server[0] droppedJobsTimout 116
scalar FogNoLB.fog[50].server[0] droppedJobsSLA 0
scalar FogNoLB.fog[50].server[0] droppedJobsTotal 1979
scalar FogNoLB.fog[51].dispatcher localJobs 517433
scalar FogNoLB.fog[51].dispatcher remoteJobs 0
scalar FogNoLB.fog[51].dispatcher probeQueries 0
scalar FogNoLB.fog[51].dispatcher probeAnswers 0
scalar FogNoLB.fog[51].dispatcher droppedJobsSLA 0
scalar FogNoLB.fog[51].dispatcher jobs_class_1 517433
scalar FogNoLB.fog[51].dispatcher localJobs_class_1 517433
scalar FogNoLB.fog[51].server[0] rho 0.79732263088226
scalar FogNoLB.fog[51].server[0] congestionRatio 0
scalar FogNoLB.fog[51].server[0] totalJobs 517433
scalar FogNoLB.fog[51].server[0] droppedJobsQueue 1808
scalar FogNoLB.fog[51].server[0] droppedJobsTimout 89
scalar FogNoLB.fog[51].server[0] droppedJobsSLA 0
scalar FogNoLB.fog[51].server[0] droppedJobsTotal 1897
scalar FogNoLB.fog[52].dispatcher localJobs 518107
scalar FogNoLB.fog[52].dispatcher remoteJobs 0
scalar FogNoLB.fog[52].dispatcher probeQueries 0
scalar FogNoLB.fog[52].dispatcher probeAnswers 0
scalar FogNoLB.fog[52].dispatcher droppedJobsSLA 0
scalar FogNoLB.fog[52].dispatcher jobs_class_1 518107
scalar FogNoLB.fog[52].dispatcher localJobs_class_1 518107
scalar FogNoLB.fog[52].server[0] rho 0.79818588495255
scalar FogNoLB.fog[52].server[0] congestionRatio 0
scalar FogNoLB.fog[52].server[0] totalJobs 518107
scalar FogNoLB.fog[52].server[0] droppedJobsQueue 1943
scalar FogNoLB.fog[52].server[0] droppedJobsTimout 126
scalar FogNoLB.fog[52].server[0] droppedJobsSLA 0
scalar FogNoLB.fog[52].server[0] droppedJobsTotal 2069
scalar FogNoLB.fog[53].dispatcher localJobs 516566
scalar FogNoLB.fog[53].dispatcher remoteJobs 0
scalar FogNoLB.fog[53].dispatcher probeQueries 0
scalar FogNoLB.fog[53].dispatcher probeAnswers 0
scalar FogNoLB.fog[53].dispatcher droppedJobsSLA 0
scalar FogNoLB.fog[53].dispatcher jobs_class_1 516566
scalar FogNoLB.fog[53].dispatcher localJobs_class_1 516566
scalar FogNoLB.fog[53].server[0] rho 0.7960832118988
scalar FogNoLB.fog[53].server[0] congestionRatio 0
scalar FogNoLB.fog[53].server[0] totalJobs 516566
scalar FogNoLB.fog[53].server[0] droppedJobsQueue 1729
scalar FogNoLB.fog[53].server[0] droppedJobsTimout 124
scalar FogNoLB.fog[53].server[0] droppedJobsSLA 0
scalar FogNoLB.fog[53].server[0] droppedJobsTotal 1853
scalar FogNoLB.fog[54].dispatcher localJobs 517732
scalar FogNoLB.fog[54].dispatcher remoteJobs 0
scalar FogNoLB.fog[54].dispatcher probeQueries 0
scalar FogNoLB.fog[54].dispatcher probeAnswers 0
scalar FogNoLB.fog[54].dispatcher droppedJobsSLA 0
scalar FogNoLB.fog[54].dispatcher jobs_class_1 517732
scalar FogNoLB.fog[54].dispatcher localJobs_class_1 517732
scalar FogNoLB.fog[54].server[0] rho 0.79767143726349
scalar FogNoLB.fog[54].server[0] congestionRatio 0
scalar FogNoLB.fog[54].server[0] totalJobs 517732
scalar FogNoLB.fog[54].server[0] droppedJobsQueue 1850
scalar FogNoLB.fog[54].server[0] droppedJobsTimout 113
scalar FogNoLB.fog[54].server[0] droppedJobsSLA 0
scalar FogNoLB.fog[54].server[0] droppedJobsTotal 1963
scalar FogNoLB.fog[55].dispatcher localJobs 517399
scalar FogNoLB.fog[55].dispatcher remoteJobs 0
scalar FogNoLB.fog[55].dispatcher probeQueries 0
scalar FogNoLB.fog[55].dispatcher probeAnswers 0
scalar FogNoLB.fog[55].dispatcher droppedJobsSLA 0
scalar FogNoLB.fog[55].dispatcher jobs_class_1 517399
scalar FogNoLB.fog[55].dispatcher localJobs_class_1 517399
scalar FogNoLB.fog[55].server[0] rho 0.79728257656097
scalar FogNoLB.fog[55].server[0] congestionRatio 0
scalar FogNoLB.fog[55].server[0] totalJobs 517399
scalar FogNoLB.fog[55].server[0] droppedJobsQueue 1790
scalar FogNoLB.fog[55].server[0] droppedJobsTimout 101
scalar FogNoLB.fog[55].server[0] droppedJobsSLA 0
scalar FogNoLB.fog[55].server[0] droppedJobsTotal 1891
scalar FogNoLB.fog[56].dispatcher localJobs 518208
scalar FogNoLB.fog[56].dispatcher remoteJobs 0
scalar FogNoLB.fog[56].dispatcher probeQueries 0
scalar FogNoLB.fog[56].dispatcher probeAnswers 0
scalar FogNoLB.fog[56].dispatcher droppedJobsSLA 0
scalar FogNoLB.fog[56].dispatcher jobs_class_1 518208
scalar FogNoLB.fog[56].dispatcher localJobs_class_1 518208
scalar FogNoLB.fog[56].server[0] rho 0.7982589006424
scalar FogNoLB.fog[56].server[0] congestionRatio 0
scalar FogNoLB.fog[56].server[0] totalJobs 518208
scalar FogNoLB.fog[56].server[0] droppedJobsQueue 1963
scalar FogNoLB.fog[56].server[0] droppedJobsTimout 126
scalar FogNoLB.fog[56].server[0] droppedJobsSLA 0
scalar FogNoLB.fog[56].server[0] droppedJobsTotal 2089
scalar FogNoLB.fog[57].dispatcher localJobs 518031
scalar FogNoLB.fog[57].dispatcher remoteJobs 0
scalar FogNoLB.fog[57].dispatcher probeQueries 0
scalar FogNoLB.fog[57].dispatcher probeAnswers 0
scalar FogNoLB.fog[57].dispatcher droppedJobsSLA 0
scalar FogNoLB.fog[57].dispatcher jobs_class_1 518031
scalar FogNoLB.fog[57].dispatcher localJobs_class_1 518031
scalar FogNoLB.fog[57].server[0] rho 0.79807937145233
scalar FogNoLB.fog[57].server[0] congestionRatio 0
scalar FogNoLB.fog[57].server[0] totalJobs 518031
scalar FogNoLB.fog[57].server[0] droppedJobsQueue 1902
scalar FogNoLB.fog[57].server[0] droppedJobsTimout 105
scalar FogNoLB.fog[57].server[0] droppedJobsSLA 0
scalar FogNoLB.fog[57].server[0] droppedJobsTotal 2007
scalar FogNoLB.fog[58].dispatcher localJobs 517134
scalar FogNoLB.fog[58].dispatcher remoteJobs 0
scalar FogNoLB.fog[58].dispatcher probeQueries 0
scalar FogNoLB.fog[58].dispatcher probeAnswers 0
scalar FogNoLB.fog[58].dispatcher droppedJobsSLA 0
scalar FogNoLB.fog[58].dispatcher jobs_class_1 517134
scalar FogNoLB.fog[58].dispatcher localJobs_class_1 517134
scalar FogNoLB.fog[58].server[0] rho 0.79658854007721
scalar FogNoLB.fog[58].server[0] congestionRatio 0
scalar FogNoLB.fog[58].server[0] totalJobs 517134
scalar FogNoLB.fog[58].server[0] droppedJobsQueue 1940
scalar FogNoLB.fog[58].server[0] droppedJobsTimout 117
scalar FogNoLB.fog[58].server[0] droppedJobsSLA 0
scalar FogNoLB.fog[58].server[0] droppedJobsTotal 2057
scalar FogNoLB.fog[59].dispatcher localJobs 516351
scalar FogNoLB.fog[59].dispatcher remoteJobs 0
scalar FogNoLB.fog[59].dispatcher probeQueries 0
scalar FogNoLB.fog[59].dispatcher probeAnswers 0
scalar FogNoLB.fog[59].dispatcher droppedJobsSLA 0
scalar FogNoLB.fog[59].dispatcher jobs_class_1 516351
scalar FogNoLB.fog[59].dispatcher localJobs_class_1 516351
scalar FogNoLB.fog[59].server[0] rho 0.79560536146164
scalar FogNoLB.fog[59].server[0] congestionRatio 0
scalar FogNoLB.fog[59].server[0] totalJobs 516351
scalar FogNoLB.fog[59].server[0] droppedJobsQueue 1826
scalar FogNoLB.fog[59].server[0] droppedJobsTimout 115
scalar FogNoLB.fog[59].server[0] droppedJobsSLA 0
scalar FogNoLB.fog[59].server[0] droppedJobsTotal 1941
scalar FogNoLB.fog[60].dispatcher localJobs 517814
scalar FogNoLB.fog[60].dispatcher remoteJobs 0
scalar FogNoLB.fog[60].dispatcher probeQueries 0
scalar FogNoLB.fog[60].dispatcher probeAnswers 0
scalar FogNoLB.fog[60].dispatcher droppedJobsSLA 0
scalar FogNoLB.fog[60].dispatcher jobs_class_1 517814
scalar FogNoLB.fog[60].dispatcher localJobs_class_1 517814
scalar FogNoLB.fog[60].server[0] rho 0.79778426885605
scalar FogNoLB.fog[60].server[0] congestionRatio 0
scalar FogNoLB.fog[60].server[0] totalJobs 517814
scalar FogNoLB.fog[60].server[0] droppedJobsQueue 1879
scalar FogNoLB.fog[60].server[0] droppedJobsTimout 108
scalar FogNoLB.fog[60].server[0] droppedJobsSLA 0
scalar FogNoLB.fog[60].server[0] droppedJobsTotal 1987
scalar FogNoLB.fog[61].dispatcher localJobs 518641
scalar FogNoLB.fog[61].dispatcher remoteJobs 0
scalar FogNoLB.fog[61].dispatcher probeQueries 0
scalar FogNoLB.fog[61].dispatcher probeAnswers 0
scalar FogNoLB.fog[61].dispatcher droppedJobsSLA 0
scalar FogNoLB.fog[61].dispatcher jobs_class_1 518641
scalar FogNoLB.fog[61].dispatcher localJobs_class_1 518641
scalar FogNoLB.fog[61].server[0] rho 0.79893708229065
scalar FogNoLB.fog[61].server[0] congestionRatio 0
scalar FogNoLB.fog[61].server[0] totalJobs 518641
scalar FogNoLB.fog[61].server[0] droppedJobsQueue 1956
scalar FogNoLB.fog[61].server[0] droppedJobsTimout 117
scalar FogNoLB.fog[61].server[0] droppedJobsSLA 0
scalar FogNoLB.fog[61].server[0] droppedJobsTotal 2073
scalar FogNoLB.fog[62].dispatcher localJobs 518036
scalar FogNoLB.fog[62].dispatcher remoteJobs 0
scalar FogNoLB.fog[62].dispatcher probeQueries 0
scalar FogNoLB.fog[62].dispatcher probeAnswers 0
scalar FogNoLB.fog[62].dispatcher droppedJobsSLA 0
scalar FogNoLB.fog[62].dispatcher jobs_class_1 518036
scalar FogNoLB.fog[62].dispatcher localJobs_class_1 518036
scalar FogNoLB.fog[62].server[0] rho 0.79821044206619
scalar FogNoLB.fog[62].server[0] congestionRatio 0
scalar FogNoLB.fog[62].server[0] totalJobs 518036
scalar FogNoLB.fog[62].server[0] droppedJobsQueue 1825
scalar FogNoLB.fog[62].server[0] droppedJobsTimout 98
scalar FogNoLB.fog[62].server[0] droppedJobsSLA 0
scalar FogNoLB.fog[62].server[0] droppedJobsTotal 1923
scalar FogNoLB.fog[63].dispatcher localJobs 516719
scalar FogNoLB.fog[63].dispatcher remoteJobs 0
scalar FogNoLB.fog[63].dispatcher probeQueries 0
scalar FogNoLB.fog[63].dispatcher probeAnswers 0
scalar FogNoLB.fog[63].dispatcher droppedJobsSLA 0
scalar FogNoLB.fog[63].dispatcher jobs_class_1 516719
scalar FogNoLB.fog[63].dispatcher localJobs_class_1 516719
scalar FogNoLB.fog[63].server[0] rho 0.79609596729279
scalar FogNoLB.fog[63].server[0] congestionRatio 0
scalar FogNoLB.fog[63].server[0] totalJobs 516719
scalar FogNoLB.fog[63].server[0] droppedJobsQueue 1867
scalar FogNoLB.fog[63].server[0] droppedJobsTimout 103
scalar FogNoLB.fog[63].server[0] droppedJobsSLA 0
scalar FogNoLB.fog[63].server[0] droppedJobsTotal 1970
scalar FogNoLB.fog[64].dispatcher localJobs 517329
scalar FogNoLB.fog[64].dispatcher remoteJobs 0
scalar FogNoLB.fog[64].dispatcher probeQueries 0
scalar FogNoLB.fog[64].dispatcher probeAnswers 0
scalar FogNoLB.fog[64].dispatcher droppedJobsSLA 0
scalar FogNoLB.fog[64].dispatcher jobs_class_1 517329
scalar FogNoLB.fog[64].dispatcher localJobs_class_1 517329
scalar FogNoLB.fog[64].server[0] rho 0.79712903499603
scalar FogNoLB.fog[64].server[0] congestionRatio 0
scalar FogNoLB.fog[64].server[0] totalJobs 517329
scalar FogNoLB.fog[64].server[0] droppedJobsQueue 1813
scalar FogNoLB.fog[64].server[0] droppedJobsTimout 116
scalar FogNoLB.fog[64].server[0] droppedJobsSLA 0
scalar FogNoLB.fog[64].server[0] droppedJobsTotal 1929
scalar FogNoLB.fog[65].dispatcher localJobs 516149
scalar FogNoLB.fog[65].dispatcher remoteJobs 0
scalar FogNoLB.fog[65].dispatcher probeQueries 0
scalar FogNoLB.fog[65].dispatcher probeAnswers 0
scalar FogNoLB.fog[65].dispatcher droppedJobsSLA 0
scalar FogNoLB.fog[65].dispatcher jobs_class_1 516149
scalar FogNoLB.fog[65].dispatcher localJobs_class_1 516149
scalar FogNoLB.fog[65].server[0] rho 0.79543495178223
scalar FogNoLB.fog[65].server[0] congestionRatio 0
scalar FogNoLB.fog[65].server[0] totalJobs 516149
scalar FogNoLB.fog[65].server[0] droppedJobsQueue 1741
scalar FogNoLB.fog[65].server[0] droppedJobsTimout 116
scalar FogNoLB.fog[65].server[0] droppedJobsSLA 0
scalar FogNoLB.fog[65].server[0] droppedJobsTotal 1857
scalar FogNoLB.fog[66].dispatcher localJobs 518111
scalar FogNoLB.fog[66].dispatcher remoteJobs 0
scalar FogNoLB.fog[66].dispatcher probeQueries 0
scalar FogNoLB.fog[66].dispatcher probeAnswers 0
scalar FogNoLB.fog[66].dispatcher droppedJobsSLA 0
scalar FogNoLB.fog[66].dispatcher jobs_class_1 518111
scalar FogNoLB.fog[66].dispatcher localJobs_class_1 518111
scalar FogNoLB.fog[66].server[0] rho 0.7983061671257
scalar FogNoLB.fog[66].server[0] congestionRatio 0
scalar FogNoLB.fog[66].server[0] totalJobs 518111
scalar FogNoLB.fog[66].server[0] droppedJobsQueue 1835
scalar FogNoLB.fog[66].server[0] droppedJobsTimout 109
scalar FogNoLB.fog[66].server[0] droppedJobsSLA 0
scalar FogNoLB.fog[66].server[0] droppedJobsTotal 1944
scalar FogNoLB.fog[67].dispatcher localJobs 517800
scalar FogNoLB.fog[67].dispatcher remoteJobs 0
scalar FogNoLB.fog[67].dispatcher probeQueries 0
scalar FogNoLB.fog[67].dispatcher probeAnswers 0
scalar FogNoLB.fog[67].dispatcher droppedJobsSLA 0
scalar FogNoLB.fog[67].dispatcher jobs_class_1 517800
scalar FogNoLB.fog[67].dispatcher localJobs_class_1 517800
scalar FogNoLB.fog[67].server[0] rho 0.7975942492485
scalar FogNoLB.fog[67].server[0] congestionRatio 0
scalar FogNoLB.fog[67].server[0] totalJobs 517800
scalar FogNoLB.fog[67].server[0] droppedJobsQueue 1970
scalar FogNoLB.fog[67].server[0] droppedJobsTimout 115
scalar FogNoLB.fog[67].server[0] droppedJobsSLA 0
scalar FogNoLB.fog[67].server[0] droppedJobsTotal 2085
scalar FogNoLB.fog[68].dispatcher localJobs 518037
scalar FogNoLB.fog[68].dispatcher remoteJobs 0
scalar FogNoLB.fog[68].dispatcher probeQueries 0
scalar FogNoLB.fog[68].dispatcher probeAnswers 0
scalar FogNoLB.fog[68].dispatcher droppedJobsSLA 0
scalar FogNoLB.fog[68].dispatcher jobs_class_1 518037
scalar FogNoLB.fog[68].dispatcher localJobs_class_1 518037
scalar FogNoLB.fog[68].server[0] rho 0.79808533191681
scalar FogNoLB.fog[68].server[0] congestionRatio 0
scalar FogNoLB.fog[68].server[0] totalJobs 518037
scalar FogNoLB.fog[68].server[0] droppedJobsQueue 1921
scalar FogNoLB.fog[68].server[0] droppedJobsTimout 91
scalar FogNoLB.fog[68].server[0] droppedJobsSLA 0
scalar FogNoLB.fog[68].server[0] droppedJobsTotal 2012
scalar FogNoLB.fog[69].dispatcher localJobs 517248
scalar FogNoLB.fog[69].dispatcher remoteJobs 0
scalar FogNoLB.fog[69].dispatcher probeQueries 0
scalar FogNoLB.fog[69].dispatcher probeAnswers 0
scalar FogNoLB.fog[69].dispatcher droppedJobsSLA 0
scalar FogNoLB.fog[69].dispatcher jobs_class_1 517248
scalar FogNoLB.fog[69].dispatcher localJobs_class_1 517248
scalar FogNoLB.fog[69].server[0] rho 0.79682987928391
scalar FogNoLB.fog[69].server[0] congestionRatio 0
scalar FogNoLB.fog[69].server[0] totalJobs 517248
scalar FogNoLB.fog[69].server[0] droppedJobsQueue 1939
scalar FogNoLB.fog[69].server[0] droppedJobsTimout 112
scalar FogNoLB.fog[69].server[0] droppedJobsSLA 0
scalar FogNoLB.fog[69].server[0] droppedJobsTotal 2051
scalar FogNoLB.fog[70].dispatcher localJobs 516695
scalar FogNoLB.fog[70].dispatcher remoteJobs 0
scalar FogNoLB.fog[70].dispatcher probeQueries 0
scalar FogNoLB.fog[70].dispatcher probeAnswers 0
scalar FogNoLB.fog[70].dispatcher droppedJobsSLA 0
scalar FogNoLB.fog[70].dispatcher jobs_class_1 516695
scalar FogNoLB.fog[70].dispatcher localJobs_class_1 516695
scalar FogNoLB.fog[70].server[0] rho 0.7960512638092
scalar FogNoLB.fog[70].server[0] congestionRatio 0
scalar FogNoLB.fog[70].server[0] totalJobs 516695
scalar FogNoLB.fog[70].server[0] droppedJobsQueue 1888
scalar FogNoLB.fog[70].server[0] droppedJobsTimout 121
scalar FogNoLB.fog[70].server[0] droppedJobsSLA 0
scalar FogNoLB.fog[70].server[0] droppedJobsTotal 2009
scalar FogNoLB.fog[71].dispatcher localJobs 517134
scalar FogNoLB.fog[71].dispatcher remoteJobs 0
scalar FogNoLB.fog[71].dispatcher probeQueries 0
scalar FogNoLB.fog[71].dispatcher probeAnswers 0
scalar FogNoLB.fog[71].dispatcher droppedJobsSLA 0
scalar FogNoLB.fog[71].dispatcher jobs_class_1 517134
scalar FogNoLB.fog[71].dispatcher localJobs_class_1 517134
scalar FogNoLB.fog[71].server[0] rho 0.79688012599945
scalar FogNoLB.fog[71].server[0] congestionRatio 0
scalar FogNoLB.fog[71].server[0] totalJobs 517134
scalar FogNoLB.fog[71].server[0] droppedJobsQueue 1784
scalar FogNoLB.fog[71].server[0] droppedJobsTimout 122
scalar FogNoLB.fog[71].server[0] droppedJobsSLA 0
scalar FogNoLB.fog[71].server[0] droppedJobsTotal 1906
scalar FogNoLB.fog[72].dispatcher localJobs 516018
scalar FogNoLB.fog[72].dispatcher remoteJobs 0
scalar FogNoLB.fog[72].dispatcher probeQueries 0
scalar FogNoLB.fog[72].dispatcher probeAnswers 0
scalar FogNoLB.fog[72].dispatcher droppedJobsSLA 0
scalar FogNoLB.fog[72].dispatcher jobs_class_1 516018
scalar FogNoLB.fog[72].dispatcher localJobs_class_1 516018
scalar FogNoLB.fog[72].server[0] rho 0.79496383666992
scalar FogNoLB.fog[72].server[0] congestionRatio 0
scalar FogNoLB.fog[72].server[0] totalJobs 516018
scalar FogNoLB.fog[72].server[0] droppedJobsQueue 1884
scalar FogNoLB.fog[72].server[0] droppedJobsTimout 76
scalar FogNoLB.fog[72].server[0] droppedJobsSLA 0
scalar FogNoLB.fog[72].server[0] droppedJobsTotal 1960
scalar FogNoLB.fog[73].dispatcher localJobs 516714
scalar FogNoLB.fog[73].dispatcher remoteJobs 0
scalar FogNoLB.fog[73].dispatcher probeQueries 0
scalar FogNoLB.fog[73].dispatcher probeAnswers 0
scalar FogNoLB.fog[73].dispatcher droppedJobsSLA 0
scalar FogNoLB.fog[73].dispatcher jobs_class_1 516714
scalar FogNoLB.fog[73].dispatcher localJobs_class_1 516714
scalar FogNoLB.fog[73].server[0] rho 0.79605513811111
scalar FogNoLB.fog[73].server[0] congestionRatio 0
scalar FogNoLB.fog[73].server[0] totalJobs 516714
scalar FogNoLB.fog[73].server[0] droppedJobsQueue 1902
scalar FogNoLB.fog[73].server[0] droppedJobsTimout 119
scalar FogNoLB.fog[73].server[0] droppedJobsSLA 0
scalar FogNoLB.fog[73].server[0] droppedJobsTotal 2021
scalar FogNoLB.fog[74].dispatcher localJobs 516495
scalar FogNoLB.fog[74].dispatcher remoteJobs 0
scalar FogNoLB.fog[74].dispatcher probeQueries 0
scalar FogNoLB.fog[74].dispatcher probeAnswers 0
scalar FogNoLB.fog[74].dispatcher droppedJobsSLA 0
scalar FogNoLB.fog[74].dispatcher jobs_class_1 516495
scalar FogNoLB.fog[74].dispatcher localJobs_class_1 516495
scalar FogNoLB.fog[74].server[0] rho 0.7958071231842
scalar FogNoLB.fog[74].server[0] congestionRatio 0
scalar FogNoLB.fog[74].server[0] totalJobs 516495
scalar FogNoLB.fog[74].server[0] droppedJobsQueue 1851
scalar FogNoLB.fog[74].server[0] droppedJobsTimout 109
scalar FogNoLB.fog[74].server[0] droppedJobsSLA 0
scalar FogNoLB.fog[74].server[0] droppedJobsTotal 1960
scalar FogNoLB.fog[75].dispatcher localJobs 517103
scalar FogNoLB.fog[75].dispatcher remoteJobs 0
scalar FogNoLB.fog[75].dispatcher probeQueries 0
scalar FogNoLB.fog[75].dispatcher probeAnswers 0
scalar FogNoLB.fog[75].dispatcher droppedJobsSLA 0
scalar FogNoLB.fog[75].dispatcher jobs_class_1 517103
scalar FogNoLB.fog[75].dispatcher localJobs_class_1 517103
scalar FogNoLB.fog[75].server[0] rho 0.7964192032814
scalar FogNoLB.fog[75].server[0] congestionRatio 0
scalar FogNoLB.fog[75].server[0] totalJobs 517103
scalar FogNoLB.fog[75].server[0] droppedJobsQueue 2032
scalar FogNoLB.fog[75].server[0] droppedJobsTimout 100
scalar FogNoLB.fog[75].server[0] droppedJobsSLA 0
scalar FogNoLB.fog[75].server[0] droppedJobsTotal 2132
scalar FogNoLB.fog[76].dispatcher localJobs 517702
scalar FogNoLB.fog[76].dispatcher remoteJobs 0
scalar FogNoLB.fog[76].dispatcher probeQueries 0
scalar FogNoLB.fog[76].dispatcher probeAnswers 0
scalar FogNoLB.fog[76].dispatcher droppedJobsSLA 0
scalar FogNoLB.fog[76].dispatcher jobs_class_1 517702
scalar FogNoLB.fog[76].dispatcher localJobs_class_1 517702
scalar FogNoLB.fog[76].server[0] rho 0.79756116867065
scalar FogNoLB.fog[76].server[0] congestionRatio 0
scalar FogNoLB.fog[76].server[0] totalJobs 517702
scalar FogNoLB.fog[76].server[0] droppedJobsQueue 1928
scalar FogNoLB.fog[76].server[0] droppedJobsTimout 118
scalar FogNoLB.fog[76].server[0] droppedJobsSLA 0
scalar FogNoLB.fog[76].server[0] droppedJobsTotal 2046
scalar FogNoLB.fog[77].dispatcher localJobs 517563
scalar FogNoLB.fog[77].dispatcher remoteJobs 0
scalar FogNoLB.fog[77].dispatcher probeQueries 0
scalar FogNoLB.fog[77].dispatcher probeAnswers 0
scalar FogNoLB.fog[77].dispatcher droppedJobsSLA 0
scalar FogNoLB.fog[77].dispatcher jobs_class_1 517563
scalar FogNoLB.fog[77].dispatcher localJobs_class_1 517563
scalar FogNoLB.fog[77].server[0] rho 0.79736137390137
scalar FogNoLB.fog[77].server[0] congestionRatio 0
scalar FogNoLB.fog[77].server[0] totalJobs 517563
scalar FogNoLB.fog[77].server[0] droppedJobsQueue 1902
scalar FogNoLB.fog[77].server[0] droppedJobsTimout 104
scalar FogNoLB.fog[77].server[0] droppedJobsSLA 0
scalar FogNoLB.fog[77].server[0] droppedJobsTotal 2006
scalar FogNoLB.fog[78].dispatcher localJobs 517355
scalar FogNoLB.fog[78].dispatcher remoteJobs 0
scalar FogNoLB.fog[78].dispatcher probeQueries 0
scalar FogNoLB.fog[78].dispatcher probeAnswers 0
scalar FogNoLB.fog[78].dispatcher droppedJobsSLA 0
scalar FogNoLB.fog[78].dispatcher jobs_class_1 517355
scalar FogNoLB.fog[78].dispatcher localJobs_class_1 517355
scalar FogNoLB.fog[78].server[0] rho 0.79712671041489
scalar FogNoLB.fog[78].server[0] congestionRatio 0
scalar FogNoLB.fog[78].server[0] totalJobs 517355
scalar FogNoLB.fog[78].server[0] droppedJobsQueue 1834
scalar FogNoLB.fog[78].server[0] droppedJobsTimout 118
scalar FogNoLB.fog[78].server[0] droppedJobsSLA 0
scalar FogNoLB.fog[78].server[0] droppedJobsTotal 1952
scalar FogNoLB.fog[79].dispatcher localJobs 518190
scalar FogNoLB.fog[79].dispatcher remoteJobs 0
scalar FogNoLB.fog[79].dispatcher probeQueries 0
scalar FogNoLB.fog[79].dispatcher probeAnswers 0
scalar FogNoLB.fog[79].dispatcher droppedJobsSLA 0
scalar FogNoLB.fog[79].dispatcher jobs_class_1 518190
scalar FogNoLB.fog[79].dispatcher localJobs_class_1 518190
scalar FogNoLB.fog[79].server[0] rho 0.79832357168198
scalar FogNoLB.fog[79].server[0] congestionRatio 0
scalar FogNoLB.fog[79].server[0] totalJobs 518190
scalar FogNoLB.fog[79].server[0] droppedJobsQueue 1902
scalar FogNoLB.fog[79].server[0] droppedJobsTimout 105
scalar FogNoLB.fog[79].server[0] droppedJobsSLA 0
scalar FogNoLB.fog[79].server[0] droppedJobsTotal 2007
scalar FogNoLB.fog[80].dispatcher localJobs 517413
scalar FogNoLB.fog[80].dispatcher remoteJobs 0
scalar FogNoLB.fog[80].dispatcher probeQueries 0
scalar FogNoLB.fog[80].dispatcher probeAnswers 0
scalar FogNoLB.fog[80].dispatcher droppedJobsSLA 0
scalar FogNoLB.fog[80].dispatcher jobs_class_1 517413
scalar FogNoLB.fog[80].dispatcher localJobs_class_1 517413
scalar FogNoLB.fog[80].server[0] rho 0.79712724685669
scalar FogNoLB.fog[80].server[0] congestionRatio 0
scalar FogNoLB.fog[80].server[0] totalJobs 517413
scalar FogNoLB.fog[80].server[0] droppedJobsQueue 1918
scalar FogNoLB.fog[80].server[0] droppedJobsTimout 123
scalar FogNoLB.fog[80].server[0] droppedJobsSLA 0
scalar FogNoLB.fog[80].server[0] droppedJobsTotal 2041
scalar FogNoLB.fog[81].dispatcher localJobs 517081
scalar FogNoLB.fog[81].dispatcher remoteJobs 0
scalar FogNoLB.fog[81].dispatcher probeQueries 0
scalar FogNoLB.fog[81].dispatcher probeAnswers 0
scalar FogNoLB.fog[81].dispatcher droppedJobsSLA 0
scalar FogNoLB.fog[81].dispatcher jobs_class_1 517081
scalar FogNoLB.fog[81].dispatcher localJobs_class_1 517081
scalar FogNoLB.fog[81].server[0] rho 0.79648101329803
scalar FogNoLB.fog[81].server[0] congestionRatio 0
scalar FogNoLB.fog[81].server[0] totalJobs 517081
scalar FogNoLB.fog[81].server[0] droppedJobsQueue 1985
scalar FogNoLB.fog[81].server[0] droppedJobsTimout 107
scalar FogNoLB.fog[81].server[0] droppedJobsSLA 0
scalar FogNoLB.fog[81].server[0] droppedJobsTotal 2092
scalar FogNoLB.fog[82].dispatcher localJobs 518772
scalar FogNoLB.fog[82].dispatcher remoteJobs 0
scalar FogNoLB.fog[82].dispatcher probeQueries 0
scalar FogNoLB.fog[82].dispatcher probeAnswers 0
scalar FogNoLB.fog[82].dispatcher droppedJobsSLA 0
scalar FogNoLB.fog[82].dispatcher jobs_class_1 518772
scalar FogNoLB.fog[82].dispatcher localJobs_class_1 518772
scalar FogNoLB.fog[82].server[0] rho 0.79908484220505
scalar FogNoLB.fog[82].server[0] congestionRatio 0
scalar FogNoLB.fog[82].server[0] totalJobs 518772
scalar FogNoLB.fog[82].server[0] droppedJobsQueue 2003
scalar FogNoLB.fog[82].server[0] droppedJobsTimout 104
scalar FogNoLB.fog[82].server[0] droppedJobsSLA 0
scalar FogNoLB.fog[82].server[0] droppedJobsTotal 2107
scalar FogNoLB.fog[83].dispatcher localJobs 517243
scalar FogNoLB.fog[83].dispatcher remoteJobs 0
scalar FogNoLB.fog[83].dispatcher probeQueries 0
scalar FogNoLB.fog[83].dispatcher probeAnswers 0
scalar FogNoLB.fog[83].dispatcher droppedJobsSLA 0
scalar FogNoLB.fog[83].dispatcher jobs_class_1 517243
scalar FogNoLB.fog[83].dispatcher localJobs_class_1 517243
scalar FogNoLB.fog[83].server[0] rho 0.79701936244965
scalar FogNoLB.fog[83].server[0] congestionRatio 0
scalar FogNoLB.fog[83].server[0] totalJobs 517243
scalar FogNoLB.fog[83].server[0] droppedJobsQueue 1801
scalar FogNoLB.fog[83].server[0] droppedJobsTimout 115
scalar FogNoLB.fog[83].server[0] droppedJobsSLA 0
scalar FogNoLB.fog[83].server[0] droppedJobsTotal 1916
scalar FogNoLB.fog[84].dispatcher localJobs 517815
scalar FogNoLB.fog[84].dispatcher remoteJobs 0
scalar FogNoLB.fog[84].dispatcher probeQueries 0
scalar FogNoLB.fog[84].dispatcher probeAnswers 0
scalar FogNoLB.fog[84].dispatcher droppedJobsSLA 0
scalar FogNoLB.fog[84].dispatcher jobs_class_1 517815
scalar FogNoLB.fog[84].dispatcher localJobs_class_1 517815
scalar FogNoLB.fog[84].server[0] rho 0.7975093126297
scalar FogNoLB.fog[84].server[0] congestionRatio 0
scalar FogNoLB.fog[84].server[0] totalJobs 517815
scalar FogNoLB.fog[84].server[0] droppedJobsQueue 2047
scalar FogNoLB.fog[84].server[0] droppedJobsTimout 123
scalar FogNoLB.fog[84].server[0] droppedJobsSLA 0
scalar FogNoLB.fog[84].server[0] droppedJobsTotal 2170
scalar FogNoLB.fog[85].dispatcher localJobs 515961
scalar FogNoLB.fog[85].dispatcher remoteJobs 0
scalar FogNoLB.fog[85].dispatcher probeQueries 0
scalar FogNoLB.fog[85].dispatcher probeAnswers 0
scalar FogNoLB.fog[85].dispatcher droppedJobsSLA 0
scalar FogNoLB.fog[85].dispatcher jobs_class_1 515961
scalar FogNoLB.fog[85].dispatcher localJobs_class_1 515961
scalar FogNoLB.fog[85].server[0] rho 0.79493045806885
scalar FogNoLB.fog[85].server[0] congestionRatio 0
scalar FogNoLB.fog[85].server[0] totalJobs 515961
scalar FogNoLB.fog[85].server[0] droppedJobsQueue 1865
scalar FogNoLB.fog[85].server[0] droppedJobsTimout 103
scalar FogNoLB.fog[85].server[0] droppedJobsSLA 0
scalar FogNoLB.fog[85].server[0] droppedJobsTotal 1968
scalar FogNoLB.fog[86].dispatcher localJobs 516768
scalar FogNoLB.fog[86].dispatcher remoteJobs 0
scalar FogNoLB.fog[86].dispatcher probeQueries 0
scalar FogNoLB.fog[86].dispatcher probeAnswers 0
scalar FogNoLB.fog[86].dispatcher droppedJobsSLA 0
scalar FogNoLB.fog[86].dispatcher jobs_class_1 516768
scalar FogNoLB.fog[86].dispatcher localJobs_class_1 516768
scalar FogNoLB.fog[86].server[0] rho 0.79628819227219
scalar FogNoLB.fog[86].server[0] congestionRatio 0
scalar FogNoLB.fog[86].server[0] totalJobs 516768
scalar FogNoLB.fog[86].server[0] droppedJobsQueue 1814
scalar FogNoLB.fog[86].server[0] droppedJobsTimout 87
scalar FogNoLB.fog[86].server[0] droppedJobsSLA 0
scalar FogNoLB.fog[86].server[0] droppedJobsTotal 1901
scalar FogNoLB.fog[87].dispatcher localJobs 517592
scalar FogNoLB.fog[87].dispatcher remoteJobs 0
scalar FogNoLB.fog[87].dispatcher probeQueries 0
scalar FogNoLB.fog[87].dispatcher probeAnswers 0
scalar FogNoLB.fog[87].dispatcher droppedJobsSLA 0
scalar FogNoLB.fog[87].dispatcher jobs_class_1 517592
scalar FogNoLB.fog[87].dispatcher localJobs_class_1 517592
scalar FogNoLB.fog[87].server[0] rho 0.79771876335144
scalar FogNoLB.fog[87].server[0] congestionRatio 0
scalar FogNoLB.fog[87].server[0] totalJobs 517592
scalar FogNoLB.fog[87].server[0] droppedJobsQueue 1723
scalar FogNoLB.fog[87].server[0] droppedJobsTimout 104
scalar FogNoLB.fog[87].server[0] droppedJobsSLA 0
scalar FogNoLB.fog[87].server[0] droppedJobsTotal 1827
scalar FogNoLB.fog[88].dispatcher localJobs 517396
scalar FogNoLB.fog[88].dispatcher remoteJobs 0
scalar FogNoLB.fog[88].dispatcher probeQueries 0
scalar FogNoLB.fog[88].dispatcher probeAnswers 0
scalar FogNoLB.fog[88].dispatcher droppedJobsSLA 0
scalar FogNoLB.fog[88].dispatcher jobs_class_1 517396
scalar FogNoLB.fog[88].dispatcher localJobs_class_1 517396
scalar FogNoLB.fog[88].server[0] rho 0.79721653461456
scalar FogNoLB.fog[88].server[0] congestionRatio 0
scalar FogNoLB.fog[88].server[0] totalJobs 517396
scalar FogNoLB.fog[88].server[0] droppedJobsQueue 1812
scalar FogNoLB.fog[88].server[0] droppedJobsTimout 97
scalar FogNoLB.fog[88].server[0] droppedJobsSLA 0
scalar FogNoLB.fog[88].server[0] droppedJobsTotal 1909
scalar FogNoLB.fog[89].dispatcher localJobs 516476
scalar FogNoLB.fog[89].dispatcher remoteJobs 0
scalar FogNoLB.fog[89].dispatcher probeQueries 0
scalar FogNoLB.fog[89].dispatcher probeAnswers 0
scalar FogNoLB.fog[89].dispatcher droppedJobsSLA 0
scalar FogNoLB.fog[89].dispatcher jobs_class_1 516476
scalar FogNoLB.fog[89].dispatcher localJobs_class_1 516476
scalar FogNoLB.fog[89].server[0] rho 0.79576379060745
scalar FogNoLB.fog[89].server[0] congestionRatio 0
scalar FogNoLB.fog[89].server[0] totalJobs 516476
scalar FogNoLB.fog[89].server[0] droppedJobsQueue 1834
scalar FogNoLB.fog[89].server[0] droppedJobsTimout 127
scalar FogNoLB.fog[89].server[0] droppedJobsSLA 0
scalar FogNoLB.fog[89].server[0] droppedJobsTotal 1961
scalar FogNoLB.fog[90].dispatcher localJobs 515932
scalar FogNoLB.fog[90].dispatcher remoteJobs 0
scalar FogNoLB.fog[90].dispatcher probeQueries 0
scalar FogNoLB.fog[90].dispatcher probeAnswers 0
scalar FogNoLB.fog[90].dispatcher droppedJobsSLA 0
scalar FogNoLB.fog[90].dispatcher jobs_class_1 515932
scalar FogNoLB.fog[90].dispatcher localJobs_class_1 515932
scalar FogNoLB.fog[90].server[0] rho 0.79513883590698
scalar FogNoLB.fog[90].server[0] congestionRatio 0
scalar FogNoLB.fog[90].server[0] totalJobs 515932
scalar FogNoLB.fog[90].server[0] droppedJobsQueue 1714
scalar FogNoLB.fog[90].server[0] droppedJobsTimout 107
scalar FogNoLB.fog[90].server[0] droppedJobsSLA 0
scalar FogNoLB.fog[90].server[0] droppedJobsTotal 1821
scalar FogNoLB.fog[91].dispatcher localJobs 517549
scalar FogNoLB.fog[91].dispatcher remoteJobs 0
scalar FogNoLB.fog[91].dispatcher probeQueries 0
scalar FogNoLB.fog[91].dispatcher probeAnswers 0
scalar FogNoLB.fog[91].dispatcher droppedJobsSLA 0
scalar FogNoLB.fog[91].dispatcher jobs_class_1 517549
scalar FogNoLB.fog[91].dispatcher localJobs_class_1 517549
scalar FogNoLB.fog[91].server[0] rho 0.79739916324615
scalar FogNoLB.fog[91].server[0] congestionRatio 0
scalar FogNoLB.fog[91].server[0] totalJobs 517549
scalar FogNoLB.fog[91].server[0] droppedJobsQueue 1840
scalar FogNoLB.fog[91].server[0] droppedJobsTimout 105
scalar FogNoLB.fog[91].server[0] droppedJobsSLA 0
scalar FogNoLB.fog[91].server[0] droppedJobsTotal 1945
scalar FogNoLB.fog[92].dispatcher localJobs 515953
scalar FogNoLB.fog[92].dispatcher remoteJobs 0
scalar FogNoLB.fog[92].dispatcher probeQueries 0
scalar FogNoLB.fog[92].dispatcher probeAnswers 0
scalar FogNoLB.fog[92].dispatcher droppedJobsSLA 0
scalar FogNoLB.fog[92].dispatcher jobs_class_1 515953
scalar FogNoLB.fog[92].dispatcher localJobs_class_1 515953
scalar FogNoLB.fog[92].server[0] rho 0.79485553503036
scalar FogNoLB.fog[92].server[0] congestionRatio 0
scalar FogNoLB.fog[92].server[0] totalJobs 515953
scalar FogNoLB.fog[92].server[0] droppedJobsQueue 1924
scalar FogNoLB.fog[92].server[0] droppedJobsTimout 112
scalar FogNoLB.fog[92].server[0] droppedJobsSLA 0
scalar FogNoLB.fog[92].server[0] droppedJobsTotal 2036
scalar FogNoLB.fog[93].dispatcher localJobs 517463
scalar FogNoLB.fog[93].dispatcher remoteJobs 0
scalar FogNoLB.fog[93].dispatcher probeQueries 0
scalar FogNoLB.fog[93].dispatcher probeAnswers 0
scalar FogNoLB.fog[93].dispatcher droppedJobsSLA 0
scalar FogNoLB.fog[93].dispatcher jobs_class_1 517463
scalar FogNoLB.fog[93].dispatcher localJobs_class_1 517463
scalar FogNoLB.fog[93].server[0] rho 0.79720199108124
scalar FogNoLB.fog[93].server[0] congestionRatio 0
scalar FogNoLB.fog[93].server[0] totalJobs 517463
scalar FogNoLB.fog[93].server[0] droppedJobsQueue 1885
scalar FogNoLB.fog[93].server[0] droppedJobsTimout 113
scalar FogNoLB.fog[93].server[0] droppedJobsSLA 0
scalar FogNoLB.fog[93].server[0] droppedJobsTotal 1998
scalar FogNoLB.fog[94].dispatcher localJobs 517157
scalar FogNoLB.fog[94].dispatcher remoteJobs 0
scalar FogNoLB.fog[94].dispatcher probeQueries 0
scalar FogNoLB.fog[94].dispatcher probeAnswers 0
scalar FogNoLB.fog[94].dispatcher droppedJobsSLA 0
scalar FogNoLB.fog[94].dispatcher jobs_class_1 517157
scalar FogNoLB.fog[94].dispatcher localJobs_class_1 517157
scalar FogNoLB.fog[94].server[0] rho 0.79659193754196
scalar FogNoLB.fog[94].server[0] congestionRatio 0
scalar FogNoLB.fog[94].server[0] totalJobs 517157
scalar FogNoLB.fog[94].server[0] droppedJobsQueue 2032
scalar FogNoLB.fog[94].server[0] droppedJobsTimout 123
scalar FogNoLB.fog[94].server[0] droppedJobsSLA 0
scalar FogNoLB.fog[94].server[0] droppedJobsTotal 2155
scalar FogNoLB.fog[95].dispatcher localJobs 517772
scalar FogNoLB.fog[95].dispatcher remoteJobs 0
scalar FogNoLB.fog[95].dispatcher probeQueries 0
scalar FogNoLB.fog[95].dispatcher probeAnswers 0
scalar FogNoLB.fog[95].dispatcher droppedJobsSLA 0
scalar FogNoLB.fog[95].dispatcher jobs_class_1 517772
scalar FogNoLB.fog[95].dispatcher localJobs_class_1 517772
scalar FogNoLB.fog[95].server[0] rho 0.79769611358643
scalar FogNoLB.fog[95].server[0] congestionRatio 0
scalar FogNoLB.fog[95].server[0] totalJobs 517772
scalar FogNoLB.fog[95].server[0] droppedJobsQueue 1908
scalar FogNoLB.fog[95].server[0] droppedJobsTimout 115
scalar FogNoLB.fog[95].server[0] droppedJobsSLA 0
scalar FogNoLB.fog[95].server[0] droppedJobsTotal 2023
scalar FogNoLB.fog[96].dispatcher localJobs 517267
scalar FogNoLB.fog[96].dispatcher remoteJobs 0
scalar FogNoLB.fog[96].dispatcher probeQueries 0
scalar FogNoLB.fog[96].dispatcher probeAnswers 0
scalar FogNoLB.fog[96].dispatcher droppedJobsSLA 0
scalar FogNoLB.fog[96].dispatcher jobs_class_1 517267
scalar FogNoLB.fog[96].dispatcher localJobs_class_1 517267
scalar FogNoLB.fog[96].server[0] rho 0.79671794176102
scalar FogNoLB.fog[96].server[0] congestionRatio 0
scalar FogNoLB.fog[96].server[0] totalJobs 517267
scalar FogNoLB.fog[96].server[0] droppedJobsQueue 2030
scalar FogNoLB.fog[96].server[0] droppedJobsTimout 118
scalar FogNoLB.fog[96].server[0] droppedJobsSLA 0
scalar FogNoLB.fog[96].server[0] droppedJobsTotal 2148
scalar FogNoLB.fog[97].dispatcher localJobs 517817
scalar FogNoLB.fog[97].dispatcher remoteJobs 0
scalar FogNoLB.fog[97].dispatcher probeQueries 0
scalar FogNoLB.fog[97].dispatcher probeAnswers 0
scalar FogNoLB.fog[97].dispatcher droppedJobsSLA 0
scalar FogNoLB.fog[97].dispatcher jobs_class_1 517817
scalar FogNoLB.fog[97].dispatcher localJobs_class_1 517817
scalar FogNoLB.fog[97].server[0] rho 0.7978253364563
scalar FogNoLB.fog[97].server[0] congestionRatio 0
scalar FogNoLB.fog[97].server[0] totalJobs 517817
scalar FogNoLB.fog[97].server[0] droppedJobsQueue 1862
scalar FogNoLB.fog[97].server[0] droppedJobsTimout 104
scalar FogNoLB.fog[97].server[0] droppedJobsSLA 0
scalar FogNoLB.fog[97].server[0] droppedJobsTotal 1966
scalar FogNoLB.fog[98].dispatcher localJobs 517237
scalar FogNoLB.fog[98].dispatcher remoteJobs 0
scalar FogNoLB.fog[98].dispatcher probeQueries 0
scalar FogNoLB.fog[98].dispatcher probeAnswers 0
scalar FogNoLB.fog[98].dispatcher droppedJobsSLA 0
scalar FogNoLB.fog[98].dispatcher jobs_class_1 517237
scalar FogNoLB.fog[98].dispatcher localJobs_class_1 517237
scalar FogNoLB.fog[98].server[0] rho 0.79699838161469
scalar FogNoLB.fog[98].server[0] congestionRatio 0
scalar FogNoLB.fog[98].server[0] totalJobs 517237
scalar FogNoLB.fog[98].server[0] droppedJobsQueue 1820
scalar FogNoLB.fog[98].server[0] droppedJobsTimout 134
scalar FogNoLB.fog[98].server[0] droppedJobsSLA 0
scalar FogNoLB.fog[98].server[0] droppedJobsTotal 1954
scalar FogNoLB.fog[99].dispatcher localJobs 516930
scalar FogNoLB.fog[99].dispatcher remoteJobs 0
scalar FogNoLB.fog[99].dispatcher probeQueries 0
scalar FogNoLB.fog[99].dispatcher probeAnswers 0
scalar FogNoLB.fog[99].dispatcher droppedJobsSLA 0
scalar FogNoLB.fog[99].dispatcher jobs_class_1 516930
scalar FogNoLB.fog[99].dispatcher localJobs_class_1 516930
scalar FogNoLB.fog[99].server[0] rho 0.79639917612076
scalar FogNoLB.fog[99].server[0] congestionRatio 0
scalar FogNoLB.fog[99].server[0] totalJobs 516930
scalar FogNoLB.fog[99].server[0] droppedJobsQueue 1884
scalar FogNoLB.fog[99].server[0] droppedJobsTimout 95
scalar FogNoLB.fog[99].server[0] droppedJobsSLA 0
scalar FogNoLB.fog[99].server[0] droppedJobsTotal 1979
scalar FogNoLB.sink avg_responseTime_1 0.04721060218684
scalar FogNoLB.sink p90_responseTime_1 0.014830449966
scalar FogNoLB.sink med_responseTime_1 0.014830449966
scalar FogNoLB.sink avg_delayTime_1 0
scalar FogNoLB.sink p90_delayTime_1 0
scalar FogNoLB.sink med_delayTime_1 0
scalar FogNoLB.sink avg_queuingTime_1 0.030510629930858
scalar FogNoLB.sink p90_queuingTime_1 0
scalar FogNoLB.sink med_queuingTime_1 0
scalar FogNoLB.sink avg_serviceTime_1 0.016699972255983
scalar FogNoLB.sink p90_serviceTime_1 0.01474163093
scalar FogNoLB.sink med_serviceTime_1 0.01474163093
scalar FogNoLB.sink avg_balancerTime_1 0
scalar FogNoLB.sink p90_balancerTime_1 0
scalar FogNoLB.sink med_balancerTime_1 0
scalar FogNoLB.sink avg_balancerCount_1 1
scalar FogNoLB.sink p90_balancerCount_1 1
scalar FogNoLB.sink med_balancerCount_1 1

