version 2
run Fog-mul_001-rho_08-thr_10-1-20190711-19:20:46-52680
attr configname Fog-mul_001-rho_08-thr_10
attr datetime 20190711-19:20:46
attr experiment Fog-mul_001-rho_08-thr_10
attr inifile FogQueueLen.ini
attr iterationvars ""
attr iterationvarsf ""
attr measurement ""
attr network FogNoLB
attr processid 52680
attr repetition 1
attr replication #1
attr resultdir results
attr runnumber 1
attr seedset 1
param FogNoLB.proctimeMul 0.01
param FogNoLB.rho 0.8
param FogNoLB.fog[*].server[*].capacity 10
param FogNoLB.nSources 100
param FogNoLB.rho 0.9
param FogNoLB.proctimeMul 1.0
param FogNoLB.source[*].appId 1
param FogNoLB.fog[*].nServers 1
param FogNoLB.fog[*].dispatcher.fanOut 1
param FogNoLB.fog[*].server[*].timeSlice -1s
param FogNoLB.fog[*].server[*].capacity 5
param FogNoLB.fog[*].server[*].fifo true
param FogNoLB.fog[*].server[*].maxServiceTime -1s

scalar FogNoLB.fog[0].dispatcher localJobs 517288
scalar FogNoLB.fog[0].dispatcher remoteJobs 0
scalar FogNoLB.fog[0].dispatcher probeQueries 0
scalar FogNoLB.fog[0].dispatcher probeAnswers 0
scalar FogNoLB.fog[0].dispatcher droppedJobsSLA 0
scalar FogNoLB.fog[0].dispatcher jobs_class_1 517288
scalar FogNoLB.fog[0].dispatcher localJobs_class_1 517288
scalar FogNoLB.fog[0].server[0] rho 0.79796594381332
scalar FogNoLB.fog[0].server[0] congestionRatio 0
scalar FogNoLB.fog[0].server[0] totalJobs 517288
scalar FogNoLB.fog[0].server[0] droppedJobsQueue 1165
scalar FogNoLB.fog[0].server[0] droppedJobsTimout 3050
scalar FogNoLB.fog[0].server[0] droppedJobsSLA 0
scalar FogNoLB.fog[0].server[0] droppedJobsTotal 4215
scalar FogNoLB.fog[1].dispatcher localJobs 516370
scalar FogNoLB.fog[1].dispatcher remoteJobs 0
scalar FogNoLB.fog[1].dispatcher probeQueries 0
scalar FogNoLB.fog[1].dispatcher probeAnswers 0
scalar FogNoLB.fog[1].dispatcher droppedJobsSLA 0
scalar FogNoLB.fog[1].dispatcher jobs_class_1 516370
scalar FogNoLB.fog[1].dispatcher localJobs_class_1 516370
scalar FogNoLB.fog[1].server[0] rho 0.79642760753632
scalar FogNoLB.fog[1].server[0] congestionRatio 0
scalar FogNoLB.fog[1].server[0] totalJobs 516370
scalar FogNoLB.fog[1].server[0] droppedJobsQueue 1232
scalar FogNoLB.fog[1].server[0] droppedJobsTimout 3242
scalar FogNoLB.fog[1].server[0] droppedJobsSLA 0
scalar FogNoLB.fog[1].server[0] droppedJobsTotal 4474
scalar FogNoLB.fog[2].dispatcher localJobs 519845
scalar FogNoLB.fog[2].dispatcher remoteJobs 0
scalar FogNoLB.fog[2].dispatcher probeQueries 0
scalar FogNoLB.fog[2].dispatcher probeAnswers 0
scalar FogNoLB.fog[2].dispatcher droppedJobsSLA 0
scalar FogNoLB.fog[2].dispatcher jobs_class_1 519845
scalar FogNoLB.fog[2].dispatcher localJobs_class_1 519845
scalar FogNoLB.fog[2].server[0] rho 0.8016774058342
scalar FogNoLB.fog[2].server[0] congestionRatio 0
scalar FogNoLB.fog[2].server[0] totalJobs 519845
scalar FogNoLB.fog[2].server[0] droppedJobsQueue 1318
scalar FogNoLB.fog[2].server[0] droppedJobsTimout 3280
scalar FogNoLB.fog[2].server[0] droppedJobsSLA 0
scalar FogNoLB.fog[2].server[0] droppedJobsTotal 4598
scalar FogNoLB.fog[3].dispatcher localJobs 517731
scalar FogNoLB.fog[3].dispatcher remoteJobs 0
scalar FogNoLB.fog[3].dispatcher probeQueries 0
scalar FogNoLB.fog[3].dispatcher probeAnswers 0
scalar FogNoLB.fog[3].dispatcher droppedJobsSLA 0
scalar FogNoLB.fog[3].dispatcher jobs_class_1 517731
scalar FogNoLB.fog[3].dispatcher localJobs_class_1 517731
scalar FogNoLB.fog[3].server[0] rho 0.79857409000397
scalar FogNoLB.fog[3].server[0] congestionRatio 0
scalar FogNoLB.fog[3].server[0] totalJobs 517731
scalar FogNoLB.fog[3].server[0] droppedJobsQueue 1226
scalar FogNoLB.fog[3].server[0] droppedJobsTimout 3099
scalar FogNoLB.fog[3].server[0] droppedJobsSLA 0
scalar FogNoLB.fog[3].server[0] droppedJobsTotal 4325
scalar FogNoLB.fog[4].dispatcher localJobs 516739
scalar FogNoLB.fog[4].dispatcher remoteJobs 0
scalar FogNoLB.fog[4].dispatcher probeQueries 0
scalar FogNoLB.fog[4].dispatcher probeAnswers 0
scalar FogNoLB.fog[4].dispatcher droppedJobsSLA 0
scalar FogNoLB.fog[4].dispatcher jobs_class_1 516739
scalar FogNoLB.fog[4].dispatcher localJobs_class_1 516739
scalar FogNoLB.fog[4].server[0] rho 0.79714417457581
scalar FogNoLB.fog[4].server[0] congestionRatio 0
scalar FogNoLB.fog[4].server[0] totalJobs 516739
scalar FogNoLB.fog[4].server[0] droppedJobsQueue 1146
scalar FogNoLB.fog[4].server[0] droppedJobsTimout 3066
scalar FogNoLB.fog[4].server[0] droppedJobsSLA 0
scalar FogNoLB.fog[4].server[0] droppedJobsTotal 4212
scalar FogNoLB.fog[5].dispatcher localJobs 517077
scalar FogNoLB.fog[5].dispatcher remoteJobs 0
scalar FogNoLB.fog[5].dispatcher probeQueries 0
scalar FogNoLB.fog[5].dispatcher probeAnswers 0
scalar FogNoLB.fog[5].dispatcher droppedJobsSLA 0
scalar FogNoLB.fog[5].dispatcher jobs_class_1 517077
scalar FogNoLB.fog[5].dispatcher localJobs_class_1 517077
scalar FogNoLB.fog[5].server[0] rho 0.79777354001999
scalar FogNoLB.fog[5].server[0] congestionRatio 0
scalar FogNoLB.fog[5].server[0] totalJobs 517077
scalar FogNoLB.fog[5].server[0] droppedJobsQueue 1104
scalar FogNoLB.fog[5].server[0] droppedJobsTimout 3074
scalar FogNoLB.fog[5].server[0] droppedJobsSLA 0
scalar FogNoLB.fog[5].server[0] droppedJobsTotal 4178
scalar FogNoLB.fog[6].dispatcher localJobs 518638
scalar FogNoLB.fog[6].dispatcher remoteJobs 0
scalar FogNoLB.fog[6].dispatcher probeQueries 0
scalar FogNoLB.fog[6].dispatcher probeAnswers 0
scalar FogNoLB.fog[6].dispatcher droppedJobsSLA 0
scalar FogNoLB.fog[6].dispatcher jobs_class_1 518638
scalar FogNoLB.fog[6].dispatcher localJobs_class_1 518638
scalar FogNoLB.fog[6].server[0] rho 0.79975807666779
scalar FogNoLB.fog[6].server[0] congestionRatio 0
scalar FogNoLB.fog[6].server[0] totalJobs 518638
scalar FogNoLB.fog[6].server[0] droppedJobsQueue 1342
scalar FogNoLB.fog[6].server[0] droppedJobsTimout 3416
scalar FogNoLB.fog[6].server[0] droppedJobsSLA 0
scalar FogNoLB.fog[6].server[0] droppedJobsTotal 4758
scalar FogNoLB.fog[7].dispatcher localJobs 518842
scalar FogNoLB.fog[7].dispatcher remoteJobs 0
scalar FogNoLB.fog[7].dispatcher probeQueries 0
scalar FogNoLB.fog[7].dispatcher probeAnswers 0
scalar FogNoLB.fog[7].dispatcher droppedJobsSLA 0
scalar FogNoLB.fog[7].dispatcher jobs_class_1 518842
scalar FogNoLB.fog[7].dispatcher localJobs_class_1 518842
scalar FogNoLB.fog[7].server[0] rho 0.80039250850677
scalar FogNoLB.fog[7].server[0] congestionRatio 0
scalar FogNoLB.fog[7].server[0] totalJobs 518842
scalar FogNoLB.fog[7].server[0] droppedJobsQueue 1173
scalar FogNoLB.fog[7].server[0] droppedJobsTimout 3123
scalar FogNoLB.fog[7].server[0] droppedJobsSLA 0
scalar FogNoLB.fog[7].server[0] droppedJobsTotal 4296
scalar FogNoLB.fog[8].dispatcher localJobs 516116
scalar FogNoLB.fog[8].dispatcher remoteJobs 0
scalar FogNoLB.fog[8].dispatcher probeQueries 0
scalar FogNoLB.fog[8].dispatcher probeAnswers 0
scalar FogNoLB.fog[8].dispatcher droppedJobsSLA 0
scalar FogNoLB.fog[8].dispatcher jobs_class_1 516116
scalar FogNoLB.fog[8].dispatcher localJobs_class_1 516116
scalar FogNoLB.fog[8].server[0] rho 0.79612368345261
scalar FogNoLB.fog[8].server[0] congestionRatio 0
scalar FogNoLB.fog[8].server[0] totalJobs 516116
scalar FogNoLB.fog[8].server[0] droppedJobsQueue 1211
scalar FogNoLB.fog[8].server[0] droppedJobsTimout 3080
scalar FogNoLB.fog[8].server[0] droppedJobsSLA 0
scalar FogNoLB.fog[8].server[0] droppedJobsTotal 4291
scalar FogNoLB.fog[9].dispatcher localJobs 517427
scalar FogNoLB.fog[9].dispatcher remoteJobs 0
scalar FogNoLB.fog[9].dispatcher probeQueries 0
scalar FogNoLB.fog[9].dispatcher probeAnswers 0
scalar FogNoLB.fog[9].dispatcher droppedJobsSLA 0
scalar FogNoLB.fog[9].dispatcher jobs_class_1 517427
scalar FogNoLB.fog[9].dispatcher localJobs_class_1 517427
scalar FogNoLB.fog[9].server[0] rho 0.79799002408981
scalar FogNoLB.fog[9].server[0] congestionRatio 0
scalar FogNoLB.fog[9].server[0] totalJobs 517427
scalar FogNoLB.fog[9].server[0] droppedJobsQueue 1265
scalar FogNoLB.fog[9].server[0] droppedJobsTimout 3258
scalar FogNoLB.fog[9].server[0] droppedJobsSLA 0
scalar FogNoLB.fog[9].server[0] droppedJobsTotal 4523
scalar FogNoLB.fog[10].dispatcher localJobs 516672
scalar FogNoLB.fog[10].dispatcher remoteJobs 0
scalar FogNoLB.fog[10].dispatcher probeQueries 0
scalar FogNoLB.fog[10].dispatcher probeAnswers 0
scalar FogNoLB.fog[10].dispatcher droppedJobsSLA 0
scalar FogNoLB.fog[10].dispatcher jobs_class_1 516672
scalar FogNoLB.fog[10].dispatcher localJobs_class_1 516672
scalar FogNoLB.fog[10].server[0] rho 0.79706639051437
scalar FogNoLB.fog[10].server[0] congestionRatio 0
scalar FogNoLB.fog[10].server[0] totalJobs 516672
scalar FogNoLB.fog[10].server[0] droppedJobsQueue 1132
scalar FogNoLB.fog[10].server[0] droppedJobsTimout 3030
scalar FogNoLB.fog[10].server[0] droppedJobsSLA 0
scalar FogNoLB.fog[10].server[0] droppedJobsTotal 4162
scalar FogNoLB.fog[11].dispatcher localJobs 516989
scalar FogNoLB.fog[11].dispatcher remoteJobs 0
scalar FogNoLB.fog[11].dispatcher probeQueries 0
scalar FogNoLB.fog[11].dispatcher probeAnswers 0
scalar FogNoLB.fog[11].dispatcher droppedJobsSLA 0
scalar FogNoLB.fog[11].dispatcher jobs_class_1 516989
scalar FogNoLB.fog[11].dispatcher localJobs_class_1 516989
scalar FogNoLB.fog[11].server[0] rho 0.79744827747345
scalar FogNoLB.fog[11].server[0] congestionRatio 0
scalar FogNoLB.fog[11].server[0] totalJobs 516989
scalar FogNoLB.fog[11].server[0] droppedJobsQueue 1212
scalar FogNoLB.fog[11].server[0] droppedJobsTimout 3099
scalar FogNoLB.fog[11].server[0] droppedJobsSLA 0
scalar FogNoLB.fog[11].server[0] droppedJobsTotal 4311
scalar FogNoLB.fog[12].dispatcher localJobs 518032
scalar FogNoLB.fog[12].dispatcher remoteJobs 0
scalar FogNoLB.fog[12].dispatcher probeQueries 0
scalar FogNoLB.fog[12].dispatcher probeAnswers 0
scalar FogNoLB.fog[12].dispatcher droppedJobsSLA 0
scalar FogNoLB.fog[12].dispatcher jobs_class_1 518032
scalar FogNoLB.fog[12].dispatcher localJobs_class_1 518032
scalar FogNoLB.fog[12].server[0] rho 0.79899555444717
scalar FogNoLB.fog[12].server[0] congestionRatio 0
scalar FogNoLB.fog[12].server[0] totalJobs 518032
scalar FogNoLB.fog[12].server[0] droppedJobsQueue 1246
scalar FogNoLB.fog[12].server[0] droppedJobsTimout 3274
scalar FogNoLB.fog[12].server[0] droppedJobsSLA 0
scalar FogNoLB.fog[12].server[0] droppedJobsTotal 4520
scalar FogNoLB.fog[13].dispatcher localJobs 518588
scalar FogNoLB.fog[13].dispatcher remoteJobs 0
scalar FogNoLB.fog[13].dispatcher probeQueries 0
scalar FogNoLB.fog[13].dispatcher probeAnswers 0
scalar FogNoLB.fog[13].dispatcher droppedJobsSLA 0
scalar FogNoLB.fog[13].dispatcher jobs_class_1 518588
scalar FogNoLB.fog[13].dispatcher localJobs_class_1 518588
scalar FogNoLB.fog[13].server[0] rho 0.79975354671478
scalar FogNoLB.fog[13].server[0] congestionRatio 0
scalar FogNoLB.fog[13].server[0] totalJobs 518588
scalar FogNoLB.fog[13].server[0] droppedJobsQueue 1326
scalar FogNoLB.fog[13].server[0] droppedJobsTimout 3422
scalar FogNoLB.fog[13].server[0] droppedJobsSLA 0
scalar FogNoLB.fog[13].server[0] droppedJobsTotal 4748
scalar FogNoLB.fog[14].dispatcher localJobs 518685
scalar FogNoLB.fog[14].dispatcher remoteJobs 0
scalar FogNoLB.fog[14].dispatcher probeQueries 0
scalar FogNoLB.fog[14].dispatcher probeAnswers 0
scalar FogNoLB.fog[14].dispatcher droppedJobsSLA 0
scalar FogNoLB.fog[14].dispatcher jobs_class_1 518685
scalar FogNoLB.fog[14].dispatcher localJobs_class_1 518685
scalar FogNoLB.fog[14].server[0] rho 0.8000779747963
scalar FogNoLB.fog[14].server[0] congestionRatio 0
scalar FogNoLB.fog[14].server[0] totalJobs 518685
scalar FogNoLB.fog[14].server[0] droppedJobsQueue 1219
scalar FogNoLB.fog[14].server[0] droppedJobsTimout 3126
scalar FogNoLB.fog[14].server[0] droppedJobsSLA 0
scalar FogNoLB.fog[14].server[0] droppedJobsTotal 4345
scalar FogNoLB.fog[15].dispatcher localJobs 517099
scalar FogNoLB.fog[15].dispatcher remoteJobs 0
scalar FogNoLB.fog[15].dispatcher probeQueries 0
scalar FogNoLB.fog[15].dispatcher probeAnswers 0
scalar FogNoLB.fog[15].dispatcher droppedJobsSLA 0
scalar FogNoLB.fog[15].dispatcher jobs_class_1 517099
scalar FogNoLB.fog[15].dispatcher localJobs_class_1 517099
scalar FogNoLB.fog[15].server[0] rho 0.79769784212112
scalar FogNoLB.fog[15].server[0] congestionRatio 0
scalar FogNoLB.fog[15].server[0] totalJobs 517099
scalar FogNoLB.fog[15].server[0] droppedJobsQueue 1204
scalar FogNoLB.fog[15].server[0] droppedJobsTimout 3182
scalar FogNoLB.fog[15].server[0] droppedJobsSLA 0
scalar FogNoLB.fog[15].server[0] droppedJobsTotal 4386
scalar FogNoLB.fog[16].dispatcher localJobs 518958
scalar FogNoLB.fog[16].dispatcher remoteJobs 0
scalar FogNoLB.fog[16].dispatcher probeQueries 0
scalar FogNoLB.fog[16].dispatcher probeAnswers 0
scalar FogNoLB.fog[16].dispatcher droppedJobsSLA 0
scalar FogNoLB.fog[16].dispatcher jobs_class_1 518958
scalar FogNoLB.fog[16].dispatcher localJobs_class_1 518958
scalar FogNoLB.fog[16].server[0] rho 0.8004093170166
scalar FogNoLB.fog[16].server[0] congestionRatio 0
scalar FogNoLB.fog[16].server[0] totalJobs 518958
scalar FogNoLB.fog[16].server[0] droppedJobsQueue 1243
scalar FogNoLB.fog[16].server[0] droppedJobsTimout 3306
scalar FogNoLB.fog[16].server[0] droppedJobsSLA 0
scalar FogNoLB.fog[16].server[0] droppedJobsTotal 4549
scalar FogNoLB.fog[17].dispatcher localJobs 516919
scalar FogNoLB.fog[17].dispatcher remoteJobs 0
scalar FogNoLB.fog[17].dispatcher probeQueries 0
scalar FogNoLB.fog[17].dispatcher probeAnswers 0
scalar FogNoLB.fog[17].dispatcher droppedJobsSLA 0
scalar FogNoLB.fog[17].dispatcher jobs_class_1 516919
scalar FogNoLB.fog[17].dispatcher localJobs_class_1 516919
scalar FogNoLB.fog[17].server[0] rho 0.79724359512329
scalar FogNoLB.fog[17].server[0] congestionRatio 0
scalar FogNoLB.fog[17].server[0] totalJobs 516919
scalar FogNoLB.fog[17].server[0] droppedJobsQueue 1285
scalar FogNoLB.fog[17].server[0] droppedJobsTimout 3132
scalar FogNoLB.fog[17].server[0] droppedJobsSLA 0
scalar FogNoLB.fog[17].server[0] droppedJobsTotal 4417
scalar FogNoLB.fog[18].dispatcher localJobs 516828
scalar FogNoLB.fog[18].dispatcher remoteJobs 0
scalar FogNoLB.fog[18].dispatcher probeQueries 0
scalar FogNoLB.fog[18].dispatcher probeAnswers 0
scalar FogNoLB.fog[18].dispatcher droppedJobsSLA 0
scalar FogNoLB.fog[18].dispatcher jobs_class_1 516828
scalar FogNoLB.fog[18].dispatcher localJobs_class_1 516828
scalar FogNoLB.fog[18].server[0] rho 0.79718542098999
scalar FogNoLB.fog[18].server[0] congestionRatio 0
scalar FogNoLB.fog[18].server[0] totalJobs 516828
scalar FogNoLB.fog[18].server[0] droppedJobsQueue 1202
scalar FogNoLB.fog[18].server[0] droppedJobsTimout 3008
scalar FogNoLB.fog[18].server[0] droppedJobsSLA 0
scalar FogNoLB.fog[18].server[0] droppedJobsTotal 4210
scalar FogNoLB.fog[19].dispatcher localJobs 518296
scalar FogNoLB.fog[19].dispatcher remoteJobs 0
scalar FogNoLB.fog[19].dispatcher probeQueries 0
scalar FogNoLB.fog[19].dispatcher probeAnswers 0
scalar FogNoLB.fog[19].dispatcher droppedJobsSLA 0
scalar FogNoLB.fog[19].dispatcher jobs_class_1 518296
scalar FogNoLB.fog[19].dispatcher localJobs_class_1 518296
scalar FogNoLB.fog[19].server[0] rho 0.7995570898056
scalar FogNoLB.fog[19].server[0] congestionRatio 0
scalar FogNoLB.fog[19].server[0] totalJobs 518296
scalar FogNoLB.fog[19].server[0] droppedJobsQueue 1164
scalar FogNoLB.fog[19].server[0] droppedJobsTimout 2961
scalar FogNoLB.fog[19].server[0] droppedJobsSLA 0
scalar FogNoLB.fog[19].server[0] droppedJobsTotal 4125
scalar FogNoLB.fog[20].dispatcher localJobs 517229
scalar FogNoLB.fog[20].dispatcher remoteJobs 0
scalar FogNoLB.fog[20].dispatcher probeQueries 0
scalar FogNoLB.fog[20].dispatcher probeAnswers 0
scalar FogNoLB.fog[20].dispatcher droppedJobsSLA 0
scalar FogNoLB.fog[20].dispatcher jobs_class_1 517229
scalar FogNoLB.fog[20].dispatcher localJobs_class_1 517229
scalar FogNoLB.fog[20].server[0] rho 0.79779064655304
scalar FogNoLB.fog[20].server[0] congestionRatio 0
scalar FogNoLB.fog[20].server[0] totalJobs 517229
scalar FogNoLB.fog[20].server[0] droppedJobsQueue 1230
scalar FogNoLB.fog[20].server[0] droppedJobsTimout 3144
scalar FogNoLB.fog[20].server[0] droppedJobsSLA 0
scalar FogNoLB.fog[20].server[0] droppedJobsTotal 4374
scalar FogNoLB.fog[21].dispatcher localJobs 517410
scalar FogNoLB.fog[21].dispatcher remoteJobs 0
scalar FogNoLB.fog[21].dispatcher probeQueries 0
scalar FogNoLB.fog[21].dispatcher probeAnswers 0
scalar FogNoLB.fog[21].dispatcher droppedJobsSLA 0
scalar FogNoLB.fog[21].dispatcher jobs_class_1 517410
scalar FogNoLB.fog[21].dispatcher localJobs_class_1 517410
scalar FogNoLB.fog[21].server[0] rho 0.79822206497192
scalar FogNoLB.fog[21].server[0] congestionRatio 0
scalar FogNoLB.fog[21].server[0] totalJobs 517410
scalar FogNoLB.fog[21].server[0] droppedJobsQueue 1117
scalar FogNoLB.fog[21].server[0] droppedJobsTimout 2921
scalar FogNoLB.fog[21].server[0] droppedJobsSLA 0
scalar FogNoLB.fog[21].server[0] droppedJobsTotal 4038
scalar FogNoLB.fog[22].dispatcher localJobs 516984
scalar FogNoLB.fog[22].dispatcher remoteJobs 0
scalar FogNoLB.fog[22].dispatcher probeQueries 0
scalar FogNoLB.fog[22].dispatcher probeAnswers 0
scalar FogNoLB.fog[22].dispatcher droppedJobsSLA 0
scalar FogNoLB.fog[22].dispatcher jobs_class_1 516984
scalar FogNoLB.fog[22].dispatcher localJobs_class_1 516984
scalar FogNoLB.fog[22].server[0] rho 0.79741096496582
scalar FogNoLB.fog[22].server[0] congestionRatio 0
scalar FogNoLB.fog[22].server[0] totalJobs 516984
scalar FogNoLB.fog[22].server[0] droppedJobsQueue 1220
scalar FogNoLB.fog[22].server[0] droppedJobsTimout 3050
scalar FogNoLB.fog[22].server[0] droppedJobsSLA 0
scalar FogNoLB.fog[22].server[0] droppedJobsTotal 4270
scalar FogNoLB.fog[23].dispatcher localJobs 516395
scalar FogNoLB.fog[23].dispatcher remoteJobs 0
scalar FogNoLB.fog[23].dispatcher probeQueries 0
scalar FogNoLB.fog[23].dispatcher probeAnswers 0
scalar FogNoLB.fog[23].dispatcher droppedJobsSLA 0
scalar FogNoLB.fog[23].dispatcher jobs_class_1 516395
scalar FogNoLB.fog[23].dispatcher localJobs_class_1 516395
scalar FogNoLB.fog[23].server[0] rho 0.79642182588577
scalar FogNoLB.fog[23].server[0] congestionRatio 0
scalar FogNoLB.fog[23].server[0] totalJobs 516395
scalar FogNoLB.fog[23].server[0] droppedJobsQueue 1272
scalar FogNoLB.fog[23].server[0] droppedJobsTimout 3305
scalar FogNoLB.fog[23].server[0] droppedJobsSLA 0
scalar FogNoLB.fog[23].server[0] droppedJobsTotal 4577
scalar FogNoLB.fog[24].dispatcher localJobs 518032
scalar FogNoLB.fog[24].dispatcher remoteJobs 0
scalar FogNoLB.fog[24].dispatcher probeQueries 0
scalar FogNoLB.fog[24].dispatcher probeAnswers 0
scalar FogNoLB.fog[24].dispatcher droppedJobsSLA 0
scalar FogNoLB.fog[24].dispatcher jobs_class_1 518032
scalar FogNoLB.fog[24].dispatcher localJobs_class_1 518032
scalar FogNoLB.fog[24].server[0] rho 0.79894107580185
scalar FogNoLB.fog[24].server[0] congestionRatio 0
scalar FogNoLB.fog[24].server[0] totalJobs 518032
scalar FogNoLB.fog[24].server[0] droppedJobsQueue 1288
scalar FogNoLB.fog[24].server[0] droppedJobsTimout 3373
scalar FogNoLB.fog[24].server[0] droppedJobsSLA 0
scalar FogNoLB.fog[24].server[0] droppedJobsTotal 4661
scalar FogNoLB.fog[25].dispatcher localJobs 517910
scalar FogNoLB.fog[25].dispatcher remoteJobs 0
scalar FogNoLB.fog[25].dispatcher probeQueries 0
scalar FogNoLB.fog[25].dispatcher probeAnswers 0
scalar FogNoLB.fog[25].dispatcher droppedJobsSLA 0
scalar FogNoLB.fog[25].dispatcher jobs_class_1 517910
scalar FogNoLB.fog[25].dispatcher localJobs_class_1 517910
scalar FogNoLB.fog[25].server[0] rho 0.79890120029449
scalar FogNoLB.fog[25].server[0] congestionRatio 0
scalar FogNoLB.fog[25].server[0] totalJobs 517910
scalar FogNoLB.fog[25].server[0] droppedJobsQueue 1168
scalar FogNoLB.fog[25].server[0] droppedJobsTimout 3195
scalar FogNoLB.fog[25].server[0] droppedJobsSLA 0
scalar FogNoLB.fog[25].server[0] droppedJobsTotal 4363
scalar FogNoLB.fog[26].dispatcher localJobs 518256
scalar FogNoLB.fog[26].dispatcher remoteJobs 0
scalar FogNoLB.fog[26].dispatcher probeQueries 0
scalar FogNoLB.fog[26].dispatcher probeAnswers 0
scalar FogNoLB.fog[26].dispatcher droppedJobsSLA 0
scalar FogNoLB.fog[26].dispatcher jobs_class_1 518256
scalar FogNoLB.fog[26].dispatcher localJobs_class_1 518256
scalar FogNoLB.fog[26].server[0] rho 0.79932200908661
scalar FogNoLB.fog[26].server[0] congestionRatio 0
scalar FogNoLB.fog[26].server[0] totalJobs 518256
scalar FogNoLB.fog[26].server[0] droppedJobsQueue 1262
scalar FogNoLB.fog[26].server[0] droppedJobsTimout 3318
scalar FogNoLB.fog[26].server[0] droppedJobsSLA 0
scalar FogNoLB.fog[26].server[0] droppedJobsTotal 4580
scalar FogNoLB.fog[27].dispatcher localJobs 516721
scalar FogNoLB.fog[27].dispatcher remoteJobs 0
scalar FogNoLB.fog[27].dispatcher probeQueries 0
scalar FogNoLB.fog[27].dispatcher probeAnswers 0
scalar FogNoLB.fog[27].dispatcher droppedJobsSLA 0
scalar FogNoLB.fog[27].dispatcher jobs_class_1 516721
scalar FogNoLB.fog[27].dispatcher localJobs_class_1 516721
scalar FogNoLB.fog[27].server[0] rho 0.7970472574234
scalar FogNoLB.fog[27].server[0] congestionRatio 0
scalar FogNoLB.fog[27].server[0] totalJobs 516721
scalar FogNoLB.fog[27].server[0] droppedJobsQueue 1198
scalar FogNoLB.fog[27].server[0] droppedJobsTimout 3009
scalar FogNoLB.fog[27].server[0] droppedJobsSLA 0
scalar FogNoLB.fog[27].server[0] droppedJobsTotal 4207
scalar FogNoLB.fog[28].dispatcher localJobs 517641
scalar FogNoLB.fog[28].dispatcher remoteJobs 0
scalar FogNoLB.fog[28].dispatcher probeQueries 0
scalar FogNoLB.fog[28].dispatcher probeAnswers 0
scalar FogNoLB.fog[28].dispatcher droppedJobsSLA 0
scalar FogNoLB.fog[28].dispatcher jobs_class_1 517641
scalar FogNoLB.fog[28].dispatcher localJobs_class_1 517641
scalar FogNoLB.fog[28].server[0] rho 0.79851090908051
scalar FogNoLB.fog[28].server[0] congestionRatio 0
scalar FogNoLB.fog[28].server[0] totalJobs 517641
scalar FogNoLB.fog[28].server[0] droppedJobsQueue 1211
scalar FogNoLB.fog[28].server[0] droppedJobsTimout 3142
scalar FogNoLB.fog[28].server[0] droppedJobsSLA 0
scalar FogNoLB.fog[28].server[0] droppedJobsTotal 4353
scalar FogNoLB.fog[29].dispatcher localJobs 517329
scalar FogNoLB.fog[29].dispatcher remoteJobs 0
scalar FogNoLB.fog[29].dispatcher probeQueries 0
scalar FogNoLB.fog[29].dispatcher probeAnswers 0
scalar FogNoLB.fog[29].dispatcher droppedJobsSLA 0
scalar FogNoLB.fog[29].dispatcher jobs_class_1 517329
scalar FogNoLB.fog[29].dispatcher localJobs_class_1 517329
scalar FogNoLB.fog[29].server[0] rho 0.79787373542786
scalar FogNoLB.fog[29].server[0] congestionRatio 0
scalar FogNoLB.fog[29].server[0] totalJobs 517329
scalar FogNoLB.fog[29].server[0] droppedJobsQueue 1271
scalar FogNoLB.fog[29].server[0] droppedJobsTimout 3305
scalar FogNoLB.fog[29].server[0] droppedJobsSLA 0
scalar FogNoLB.fog[29].server[0] droppedJobsTotal 4576
scalar FogNoLB.fog[30].dispatcher localJobs 515527
scalar FogNoLB.fog[30].dispatcher remoteJobs 0
scalar FogNoLB.fog[30].dispatcher probeQueries 0
scalar FogNoLB.fog[30].dispatcher probeAnswers 0
scalar FogNoLB.fog[30].dispatcher droppedJobsSLA 0
scalar FogNoLB.fog[30].dispatcher jobs_class_1 515527
scalar FogNoLB.fog[30].dispatcher localJobs_class_1 515527
scalar FogNoLB.fog[30].server[0] rho 0.79535436630249
scalar FogNoLB.fog[30].server[0] congestionRatio 0
scalar FogNoLB.fog[30].server[0] totalJobs 515527
scalar FogNoLB.fog[30].server[0] droppedJobsQueue 1102
scalar FogNoLB.fog[30].server[0] droppedJobsTimout 2902
scalar FogNoLB.fog[30].server[0] droppedJobsSLA 0
scalar FogNoLB.fog[30].server[0] droppedJobsTotal 4004
scalar FogNoLB.fog[31].dispatcher localJobs 517240
scalar FogNoLB.fog[31].dispatcher remoteJobs 0
scalar FogNoLB.fog[31].dispatcher probeQueries 0
scalar FogNoLB.fog[31].dispatcher probeAnswers 0
scalar FogNoLB.fog[31].dispatcher droppedJobsSLA 0
scalar FogNoLB.fog[31].dispatcher jobs_class_1 517240
scalar FogNoLB.fog[31].dispatcher localJobs_class_1 517240
scalar FogNoLB.fog[31].server[0] rho 0.79767554998398
scalar FogNoLB.fog[31].server[0] congestionRatio 0
scalar FogNoLB.fog[31].server[0] totalJobs 517240
scalar FogNoLB.fog[31].server[0] droppedJobsQueue 1297
scalar FogNoLB.fog[31].server[0] droppedJobsTimout 3137
scalar FogNoLB.fog[31].server[0] droppedJobsSLA 0
scalar FogNoLB.fog[31].server[0] droppedJobsTotal 4434
scalar FogNoLB.fog[32].dispatcher localJobs 517057
scalar FogNoLB.fog[32].dispatcher remoteJobs 0
scalar FogNoLB.fog[32].dispatcher probeQueries 0
scalar FogNoLB.fog[32].dispatcher probeAnswers 0
scalar FogNoLB.fog[32].dispatcher droppedJobsSLA 0
scalar FogNoLB.fog[32].dispatcher jobs_class_1 517057
scalar FogNoLB.fog[32].dispatcher localJobs_class_1 517057
scalar FogNoLB.fog[32].server[0] rho 0.79768311977386
scalar FogNoLB.fog[32].server[0] congestionRatio 0
scalar FogNoLB.fog[32].server[0] totalJobs 517057
scalar FogNoLB.fog[32].server[0] droppedJobsQueue 1142
scalar FogNoLB.fog[32].server[0] droppedJobsTimout 2917
scalar FogNoLB.fog[32].server[0] droppedJobsSLA 0
scalar FogNoLB.fog[32].server[0] droppedJobsTotal 4059
scalar FogNoLB.fog[33].dispatcher localJobs 516001
scalar FogNoLB.fog[33].dispatcher remoteJobs 0
scalar FogNoLB.fog[33].dispatcher probeQueries 0
scalar FogNoLB.fog[33].dispatcher probeAnswers 0
scalar FogNoLB.fog[33].dispatcher droppedJobsSLA 0
scalar FogNoLB.fog[33].dispatcher jobs_class_1 516001
scalar FogNoLB.fog[33].dispatcher localJobs_class_1 516001
scalar FogNoLB.fog[33].server[0] rho 0.79579412937164
scalar FogNoLB.fog[33].server[0] congestionRatio 0
scalar FogNoLB.fog[33].server[0] totalJobs 516001
scalar FogNoLB.fog[33].server[0] droppedJobsQueue 1270
scalar FogNoLB.fog[33].server[0] droppedJobsTimout 3115
scalar FogNoLB.fog[33].server[0] droppedJobsSLA 0
scalar FogNoLB.fog[33].server[0] droppedJobsTotal 4385
scalar FogNoLB.fog[34].dispatcher localJobs 517748
scalar FogNoLB.fog[34].dispatcher remoteJobs 0
scalar FogNoLB.fog[34].dispatcher probeQueries 0
scalar FogNoLB.fog[34].dispatcher probeAnswers 0
scalar FogNoLB.fog[34].dispatcher droppedJobsSLA 0
scalar FogNoLB.fog[34].dispatcher jobs_class_1 517748
scalar FogNoLB.fog[34].dispatcher localJobs_class_1 517748
scalar FogNoLB.fog[34].server[0] rho 0.79866325855255
scalar FogNoLB.fog[34].server[0] congestionRatio 0
scalar FogNoLB.fog[34].server[0] totalJobs 517748
scalar FogNoLB.fog[34].server[0] droppedJobsQueue 1179
scalar FogNoLB.fog[34].server[0] droppedJobsTimout 3157
scalar FogNoLB.fog[34].server[0] droppedJobsSLA 0
scalar FogNoLB.fog[34].server[0] droppedJobsTotal 4336
scalar FogNoLB.fog[35].dispatcher localJobs 517420
scalar FogNoLB.fog[35].dispatcher remoteJobs 0
scalar FogNoLB.fog[35].dispatcher probeQueries 0
scalar FogNoLB.fog[35].dispatcher probeAnswers 0
scalar FogNoLB.fog[35].dispatcher droppedJobsSLA 0
scalar FogNoLB.fog[35].dispatcher jobs_class_1 517420
scalar FogNoLB.fog[35].dispatcher localJobs_class_1 517420
scalar FogNoLB.fog[35].server[0] rho 0.79826152324677
scalar FogNoLB.fog[35].server[0] congestionRatio 0
scalar FogNoLB.fog[35].server[0] totalJobs 517420
scalar FogNoLB.fog[35].server[0] droppedJobsQueue 1112
scalar FogNoLB.fog[35].server[0] droppedJobsTimout 2963
scalar FogNoLB.fog[35].server[0] droppedJobsSLA 0
scalar FogNoLB.fog[35].server[0] droppedJobsTotal 4075
scalar FogNoLB.fog[36].dispatcher localJobs 517677
scalar FogNoLB.fog[36].dispatcher remoteJobs 0
scalar FogNoLB.fog[36].dispatcher probeQueries 0
scalar FogNoLB.fog[36].dispatcher probeAnswers 0
scalar FogNoLB.fog[36].dispatcher droppedJobsSLA 0
scalar FogNoLB.fog[36].dispatcher jobs_class_1 517677
scalar FogNoLB.fog[36].dispatcher localJobs_class_1 517677
scalar FogNoLB.fog[36].server[0] rho 0.7986718416214
scalar FogNoLB.fog[36].server[0] congestionRatio 0
scalar FogNoLB.fog[36].server[0] totalJobs 517677
scalar FogNoLB.fog[36].server[0] droppedJobsQueue 1125
scalar FogNoLB.fog[36].server[0] droppedJobsTimout 2982
scalar FogNoLB.fog[36].server[0] droppedJobsSLA 0
scalar FogNoLB.fog[36].server[0] droppedJobsTotal 4107
scalar FogNoLB.fog[37].dispatcher localJobs 517749
scalar FogNoLB.fog[37].dispatcher remoteJobs 0
scalar FogNoLB.fog[37].dispatcher probeQueries 0
scalar FogNoLB.fog[37].dispatcher probeAnswers 0
scalar FogNoLB.fog[37].dispatcher droppedJobsSLA 0
scalar FogNoLB.fog[37].dispatcher jobs_class_1 517749
scalar FogNoLB.fog[37].dispatcher localJobs_class_1 517749
scalar FogNoLB.fog[37].server[0] rho 0.79850548505783
scalar FogNoLB.fog[37].server[0] congestionRatio 0
scalar FogNoLB.fog[37].server[0] totalJobs 517749
scalar FogNoLB.fog[37].server[0] droppedJobsQueue 1294
scalar FogNoLB.fog[37].server[0] droppedJobsTimout 3274
scalar FogNoLB.fog[37].server[0] droppedJobsSLA 0
scalar FogNoLB.fog[37].server[0] droppedJobsTotal 4568
scalar FogNoLB.fog[38].dispatcher localJobs 518075
scalar FogNoLB.fog[38].dispatcher remoteJobs 0
scalar FogNoLB.fog[38].dispatcher probeQueries 0
scalar FogNoLB.fog[38].dispatcher probeAnswers 0
scalar FogNoLB.fog[38].dispatcher droppedJobsSLA 0
scalar FogNoLB.fog[38].dispatcher jobs_class_1 518075
scalar FogNoLB.fog[38].dispatcher localJobs_class_1 518075
scalar FogNoLB.fog[38].server[0] rho 0.79917764663696
scalar FogNoLB.fog[38].server[0] congestionRatio 0
scalar FogNoLB.fog[38].server[0] totalJobs 518075
scalar FogNoLB.fog[38].server[0] droppedJobsQueue 1191
scalar FogNoLB.fog[38].server[0] droppedJobsTimout 3148
scalar FogNoLB.fog[38].server[0] droppedJobsSLA 0
scalar FogNoLB.fog[38].server[0] droppedJobsTotal 4339
scalar FogNoLB.fog[39].dispatcher localJobs 517515
scalar FogNoLB.fog[39].dispatcher remoteJobs 0
scalar FogNoLB.fog[39].dispatcher probeQueries 0
scalar FogNoLB.fog[39].dispatcher probeAnswers 0
scalar FogNoLB.fog[39].dispatcher droppedJobsSLA 0
scalar FogNoLB.fog[39].dispatcher jobs_class_1 517515
scalar FogNoLB.fog[39].dispatcher localJobs_class_1 517515
scalar FogNoLB.fog[39].server[0] rho 0.79840332269669
scalar FogNoLB.fog[39].server[0] congestionRatio 0
scalar FogNoLB.fog[39].server[0] totalJobs 517515
scalar FogNoLB.fog[39].server[0] droppedJobsQueue 1103
scalar FogNoLB.fog[39].server[0] droppedJobsTimout 3014
scalar FogNoLB.fog[39].server[0] droppedJobsSLA 0
scalar FogNoLB.fog[39].server[0] droppedJobsTotal 4117
scalar FogNoLB.fog[40].dispatcher localJobs 516880
scalar FogNoLB.fog[40].dispatcher remoteJobs 0
scalar FogNoLB.fog[40].dispatcher probeQueries 0
scalar FogNoLB.fog[40].dispatcher probeAnswers 0
scalar FogNoLB.fog[40].dispatcher droppedJobsSLA 0
scalar FogNoLB.fog[40].dispatcher jobs_class_1 516880
scalar FogNoLB.fog[40].dispatcher localJobs_class_1 516880
scalar FogNoLB.fog[40].server[0] rho 0.79747700691223
scalar FogNoLB.fog[40].server[0] congestionRatio 0
scalar FogNoLB.fog[40].server[0] totalJobs 516880
scalar FogNoLB.fog[40].server[0] droppedJobsQueue 1105
scalar FogNoLB.fog[40].server[0] droppedJobsTimout 2969
scalar FogNoLB.fog[40].server[0] droppedJobsSLA 0
scalar FogNoLB.fog[40].server[0] droppedJobsTotal 4074
scalar FogNoLB.fog[41].dispatcher localJobs 517113
scalar FogNoLB.fog[41].dispatcher remoteJobs 0
scalar FogNoLB.fog[41].dispatcher probeQueries 0
scalar FogNoLB.fog[41].dispatcher probeAnswers 0
scalar FogNoLB.fog[41].dispatcher droppedJobsSLA 0
scalar FogNoLB.fog[41].dispatcher jobs_class_1 517113
scalar FogNoLB.fog[41].dispatcher localJobs_class_1 517113
scalar FogNoLB.fog[41].server[0] rho 0.79771882295609
scalar FogNoLB.fog[41].server[0] congestionRatio 0
scalar FogNoLB.fog[41].server[0] totalJobs 517113
scalar FogNoLB.fog[41].server[0] droppedJobsQueue 1175
scalar FogNoLB.fog[41].server[0] droppedJobsTimout 3111
scalar FogNoLB.fog[41].server[0] droppedJobsSLA 0
scalar FogNoLB.fog[41].server[0] droppedJobsTotal 4286
scalar FogNoLB.fog[42].dispatcher localJobs 516850
scalar FogNoLB.fog[42].dispatcher remoteJobs 0
scalar FogNoLB.fog[42].dispatcher probeQueries 0
scalar FogNoLB.fog[42].dispatcher probeAnswers 0
scalar FogNoLB.fog[42].dispatcher droppedJobsSLA 0
scalar FogNoLB.fog[42].dispatcher jobs_class_1 516850
scalar FogNoLB.fog[42].dispatcher localJobs_class_1 516850
scalar FogNoLB.fog[42].server[0] rho 0.79730445146561
scalar FogNoLB.fog[42].server[0] congestionRatio 0
scalar FogNoLB.fog[42].server[0] totalJobs 516850
scalar FogNoLB.fog[42].server[0] droppedJobsQueue 1145
scalar FogNoLB.fog[42].server[0] droppedJobsTimout 3033
scalar FogNoLB.fog[42].server[0] droppedJobsSLA 0
scalar FogNoLB.fog[42].server[0] droppedJobsTotal 4178
scalar FogNoLB.fog[43].dispatcher localJobs 517353
scalar FogNoLB.fog[43].dispatcher remoteJobs 0
scalar FogNoLB.fog[43].dispatcher probeQueries 0
scalar FogNoLB.fog[43].dispatcher probeAnswers 0
scalar FogNoLB.fog[43].dispatcher droppedJobsSLA 0
scalar FogNoLB.fog[43].dispatcher jobs_class_1 517353
scalar FogNoLB.fog[43].dispatcher localJobs_class_1 517353
scalar FogNoLB.fog[43].server[0] rho 0.798031270504
scalar FogNoLB.fog[43].server[0] congestionRatio 0
scalar FogNoLB.fog[43].server[0] totalJobs 517353
scalar FogNoLB.fog[43].server[0] droppedJobsQueue 1213
scalar FogNoLB.fog[43].server[0] droppedJobsTimout 3172
scalar FogNoLB.fog[43].server[0] droppedJobsSLA 0
scalar FogNoLB.fog[43].server[0] droppedJobsTotal 4385
scalar FogNoLB.fog[44].dispatcher localJobs 516832
scalar FogNoLB.fog[44].dispatcher remoteJobs 0
scalar FogNoLB.fog[44].dispatcher probeQueries 0
scalar FogNoLB.fog[44].dispatcher probeAnswers 0
scalar FogNoLB.fog[44].dispatcher droppedJobsSLA 0
scalar FogNoLB.fog[44].dispatcher jobs_class_1 516832
scalar FogNoLB.fog[44].dispatcher localJobs_class_1 516832
scalar FogNoLB.fog[44].server[0] rho 0.79732525348663
scalar FogNoLB.fog[44].server[0] congestionRatio 0
scalar FogNoLB.fog[44].server[0] totalJobs 516832
scalar FogNoLB.fog[44].server[0] droppedJobsQueue 1131
scalar FogNoLB.fog[44].server[0] droppedJobsTimout 2857
scalar FogNoLB.fog[44].server[0] droppedJobsSLA 0
scalar FogNoLB.fog[44].server[0] droppedJobsTotal 3988
scalar FogNoLB.fog[45].dispatcher localJobs 515887
scalar FogNoLB.fog[45].dispatcher remoteJobs 0
scalar FogNoLB.fog[45].dispatcher probeQueries 0
scalar FogNoLB.fog[45].dispatcher probeAnswers 0
scalar FogNoLB.fog[45].dispatcher droppedJobsSLA 0
scalar FogNoLB.fog[45].dispatcher jobs_class_1 515887
scalar FogNoLB.fog[45].dispatcher localJobs_class_1 515887
scalar FogNoLB.fog[45].server[0] rho 0.79597860574722
scalar FogNoLB.fog[45].server[0] congestionRatio 0
scalar FogNoLB.fog[45].server[0] totalJobs 515887
scalar FogNoLB.fog[45].server[0] droppedJobsQueue 1073
scalar FogNoLB.fog[45].server[0] droppedJobsTimout 2820
scalar FogNoLB.fog[45].server[0] droppedJobsSLA 0
scalar FogNoLB.fog[45].server[0] droppedJobsTotal 3893
scalar FogNoLB.fog[46].dispatcher localJobs 518238
scalar FogNoLB.fog[46].dispatcher remoteJobs 0
scalar FogNoLB.fog[46].dispatcher probeQueries 0
scalar FogNoLB.fog[46].dispatcher probeAnswers 0
scalar FogNoLB.fog[46].dispatcher droppedJobsSLA 0
scalar FogNoLB.fog[46].dispatcher jobs_class_1 518238
scalar FogNoLB.fog[46].dispatcher localJobs_class_1 518238
scalar FogNoLB.fog[46].server[0] rho 0.79936337471008
scalar FogNoLB.fog[46].server[0] congestionRatio 0
scalar FogNoLB.fog[46].server[0] totalJobs 518238
scalar FogNoLB.fog[46].server[0] droppedJobsQueue 1226
scalar FogNoLB.fog[46].server[0] droppedJobsTimout 3285
scalar FogNoLB.fog[46].server[0] droppedJobsSLA 0
scalar FogNoLB.fog[46].server[0] droppedJobsTotal 4511
scalar FogNoLB.fog[47].dispatcher localJobs 515722
scalar FogNoLB.fog[47].dispatcher remoteJobs 0
scalar FogNoLB.fog[47].dispatcher probeQueries 0
scalar FogNoLB.fog[47].dispatcher probeAnswers 0
scalar FogNoLB.fog[47].dispatcher droppedJobsSLA 0
scalar FogNoLB.fog[47].dispatcher jobs_class_1 515722
scalar FogNoLB.fog[47].dispatcher localJobs_class_1 515722
scalar FogNoLB.fog[47].server[0] rho 0.79566693305969
scalar FogNoLB.fog[47].server[0] congestionRatio 0
scalar FogNoLB.fog[47].server[0] totalJobs 515722
scalar FogNoLB.fog[47].server[0] droppedJobsQueue 1098
scalar FogNoLB.fog[47].server[0] droppedJobsTimout 2798
scalar FogNoLB.fog[47].server[0] droppedJobsSLA 0
scalar FogNoLB.fog[47].server[0] droppedJobsTotal 3896
scalar FogNoLB.fog[48].dispatcher localJobs 516879
scalar FogNoLB.fog[48].dispatcher remoteJobs 0
scalar FogNoLB.fog[48].dispatcher probeQueries 0
scalar FogNoLB.fog[48].dispatcher probeAnswers 0
scalar FogNoLB.fog[48].dispatcher droppedJobsSLA 0
scalar FogNoLB.fog[48].dispatcher jobs_class_1 516879
scalar FogNoLB.fog[48].dispatcher localJobs_class_1 516879
scalar FogNoLB.fog[48].server[0] rho 0.7973518371582
scalar FogNoLB.fog[48].server[0] congestionRatio 0
scalar FogNoLB.fog[48].server[0] totalJobs 516879
scalar FogNoLB.fog[48].server[0] droppedJobsQueue 1189
scalar FogNoLB.fog[48].server[0] droppedJobsTimout 3018
scalar FogNoLB.fog[48].server[0] droppedJobsSLA 0
scalar FogNoLB.fog[48].server[0] droppedJobsTotal 4207
scalar FogNoLB.fog[49].dispatcher localJobs 517598
scalar FogNoLB.fog[49].dispatcher remoteJobs 0
scalar FogNoLB.fog[49].dispatcher probeQueries 0
scalar FogNoLB.fog[49].dispatcher probeAnswers 0
scalar FogNoLB.fog[49].dispatcher droppedJobsSLA 0
scalar FogNoLB.fog[49].dispatcher jobs_class_1 517598
scalar FogNoLB.fog[49].dispatcher localJobs_class_1 517598
scalar FogNoLB.fog[49].server[0] rho 0.79827803373337
scalar FogNoLB.fog[49].server[0] congestionRatio 0
scalar FogNoLB.fog[49].server[0] totalJobs 517598
scalar FogNoLB.fog[49].server[0] droppedJobsQueue 1301
scalar FogNoLB.fog[49].server[0] droppedJobsTimout 3326
scalar FogNoLB.fog[49].server[0] droppedJobsSLA 0
scalar FogNoLB.fog[49].server[0] droppedJobsTotal 4627
scalar FogNoLB.fog[50].dispatcher localJobs 516379
scalar FogNoLB.fog[50].dispatcher remoteJobs 0
scalar FogNoLB.fog[50].dispatcher probeQueries 0
scalar FogNoLB.fog[50].dispatcher probeAnswers 0
scalar FogNoLB.fog[50].dispatcher droppedJobsSLA 0
scalar FogNoLB.fog[50].dispatcher jobs_class_1 516379
scalar FogNoLB.fog[50].dispatcher localJobs_class_1 516379
scalar FogNoLB.fog[50].server[0] rho 0.7966388463974
scalar FogNoLB.fog[50].server[0] congestionRatio 0
scalar FogNoLB.fog[50].server[0] totalJobs 516379
scalar FogNoLB.fog[50].server[0] droppedJobsQueue 1105
scalar FogNoLB.fog[50].server[0] droppedJobsTimout 2889
scalar FogNoLB.fog[50].server[0] droppedJobsSLA 0
scalar FogNoLB.fog[50].server[0] droppedJobsTotal 3994
scalar FogNoLB.fog[51].dispatcher localJobs 517025
scalar FogNoLB.fog[51].dispatcher remoteJobs 0
scalar FogNoLB.fog[51].dispatcher probeQueries 0
scalar FogNoLB.fog[51].dispatcher probeAnswers 0
scalar FogNoLB.fog[51].dispatcher droppedJobsSLA 0
scalar FogNoLB.fog[51].dispatcher jobs_class_1 517025
scalar FogNoLB.fog[51].dispatcher localJobs_class_1 517025
scalar FogNoLB.fog[51].server[0] rho 0.79747372865677
scalar FogNoLB.fog[51].server[0] congestionRatio 0
scalar FogNoLB.fog[51].server[0] totalJobs 517025
scalar FogNoLB.fog[51].server[0] droppedJobsQueue 1228
scalar FogNoLB.fog[51].server[0] droppedJobsTimout 3166
scalar FogNoLB.fog[51].server[0] droppedJobsSLA 0
scalar FogNoLB.fog[51].server[0] droppedJobsTotal 4394
scalar FogNoLB.fog[52].dispatcher localJobs 517451
scalar FogNoLB.fog[52].dispatcher remoteJobs 0
scalar FogNoLB.fog[52].dispatcher probeQueries 0
scalar FogNoLB.fog[52].dispatcher probeAnswers 0
scalar FogNoLB.fog[52].dispatcher droppedJobsSLA 0
scalar FogNoLB.fog[52].dispatcher jobs_class_1 517451
scalar FogNoLB.fog[52].dispatcher localJobs_class_1 517451
scalar FogNoLB.fog[52].server[0] rho 0.79829519987106
scalar FogNoLB.fog[52].server[0] congestionRatio 0
scalar FogNoLB.fog[52].server[0] totalJobs 517451
scalar FogNoLB.fog[52].server[0] droppedJobsQueue 1114
scalar FogNoLB.fog[52].server[0] droppedJobsTimout 2953
scalar FogNoLB.fog[52].server[0] droppedJobsSLA 0
scalar FogNoLB.fog[52].server[0] droppedJobsTotal 4067
scalar FogNoLB.fog[53].dispatcher localJobs 518022
scalar FogNoLB.fog[53].dispatcher remoteJobs 0
scalar FogNoLB.fog[53].dispatcher probeQueries 0
scalar FogNoLB.fog[53].dispatcher probeAnswers 0
scalar FogNoLB.fog[53].dispatcher droppedJobsSLA 0
scalar FogNoLB.fog[53].dispatcher jobs_class_1 518022
scalar FogNoLB.fog[53].dispatcher localJobs_class_1 518022
scalar FogNoLB.fog[53].server[0] rho 0.79900336265564
scalar FogNoLB.fog[53].server[0] congestionRatio 0
scalar FogNoLB.fog[53].server[0] totalJobs 518022
scalar FogNoLB.fog[53].server[0] droppedJobsQueue 1248
scalar FogNoLB.fog[53].server[0] droppedJobsTimout 3047
scalar FogNoLB.fog[53].server[0] droppedJobsSLA 0
scalar FogNoLB.fog[53].server[0] droppedJobsTotal 4295
scalar FogNoLB.fog[54].dispatcher localJobs 516915
scalar FogNoLB.fog[54].dispatcher remoteJobs 0
scalar FogNoLB.fog[54].dispatcher probeQueries 0
scalar FogNoLB.fog[54].dispatcher probeAnswers 0
scalar FogNoLB.fog[54].dispatcher droppedJobsSLA 0
scalar FogNoLB.fog[54].dispatcher jobs_class_1 516915
scalar FogNoLB.fog[54].dispatcher localJobs_class_1 516915
scalar FogNoLB.fog[54].server[0] rho 0.79752051830292
scalar FogNoLB.fog[54].server[0] congestionRatio 0
scalar FogNoLB.fog[54].server[0] totalJobs 516915
scalar FogNoLB.fog[54].server[0] droppedJobsQueue 1101
scalar FogNoLB.fog[54].server[0] droppedJobsTimout 2970
scalar FogNoLB.fog[54].server[0] droppedJobsSLA 0
scalar FogNoLB.fog[54].server[0] droppedJobsTotal 4071
scalar FogNoLB.fog[55].dispatcher localJobs 517484
scalar FogNoLB.fog[55].dispatcher remoteJobs 0
scalar FogNoLB.fog[55].dispatcher probeQueries 0
scalar FogNoLB.fog[55].dispatcher probeAnswers 0
scalar FogNoLB.fog[55].dispatcher droppedJobsSLA 0
scalar FogNoLB.fog[55].dispatcher jobs_class_1 517484
scalar FogNoLB.fog[55].dispatcher localJobs_class_1 517484
scalar FogNoLB.fog[55].server[0] rho 0.79826962947845
scalar FogNoLB.fog[55].server[0] congestionRatio 0
scalar FogNoLB.fog[55].server[0] totalJobs 517484
scalar FogNoLB.fog[55].server[0] droppedJobsQueue 1158
scalar FogNoLB.fog[55].server[0] droppedJobsTimout 3090
scalar FogNoLB.fog[55].server[0] droppedJobsSLA 0
scalar FogNoLB.fog[55].server[0] droppedJobsTotal 4248
scalar FogNoLB.fog[56].dispatcher localJobs 517110
scalar FogNoLB.fog[56].dispatcher remoteJobs 0
scalar FogNoLB.fog[56].dispatcher probeQueries 0
scalar FogNoLB.fog[56].dispatcher probeAnswers 0
scalar FogNoLB.fog[56].dispatcher droppedJobsSLA 0
scalar FogNoLB.fog[56].dispatcher jobs_class_1 517110
scalar FogNoLB.fog[56].dispatcher localJobs_class_1 517110
scalar FogNoLB.fog[56].server[0] rho 0.79750615358353
scalar FogNoLB.fog[56].server[0] congestionRatio 0
scalar FogNoLB.fog[56].server[0] totalJobs 517110
scalar FogNoLB.fog[56].server[0] droppedJobsQueue 1285
scalar FogNoLB.fog[56].server[0] droppedJobsTimout 3426
scalar FogNoLB.fog[56].server[0] droppedJobsSLA 0
scalar FogNoLB.fog[56].server[0] droppedJobsTotal 4711
scalar FogNoLB.fog[57].dispatcher localJobs 517647
scalar FogNoLB.fog[57].dispatcher remoteJobs 0
scalar FogNoLB.fog[57].dispatcher probeQueries 0
scalar FogNoLB.fog[57].dispatcher probeAnswers 0
scalar FogNoLB.fog[57].dispatcher droppedJobsSLA 0
scalar FogNoLB.fog[57].dispatcher jobs_class_1 517647
scalar FogNoLB.fog[57].dispatcher localJobs_class_1 517647
scalar FogNoLB.fog[57].server[0] rho 0.79862087965012
scalar FogNoLB.fog[57].server[0] congestionRatio 0
scalar FogNoLB.fog[57].server[0] totalJobs 517647
scalar FogNoLB.fog[57].server[0] droppedJobsQueue 1143
scalar FogNoLB.fog[57].server[0] droppedJobsTimout 3188
scalar FogNoLB.fog[57].server[0] droppedJobsSLA 0
scalar FogNoLB.fog[57].server[0] droppedJobsTotal 4331
scalar FogNoLB.fog[58].dispatcher localJobs 518287
scalar FogNoLB.fog[58].dispatcher remoteJobs 0
scalar FogNoLB.fog[58].dispatcher probeQueries 0
scalar FogNoLB.fog[58].dispatcher probeAnswers 0
scalar FogNoLB.fog[58].dispatcher droppedJobsSLA 0
scalar FogNoLB.fog[58].dispatcher jobs_class_1 518287
scalar FogNoLB.fog[58].dispatcher localJobs_class_1 518287
scalar FogNoLB.fog[58].server[0] rho 0.79953807592392
scalar FogNoLB.fog[58].server[0] congestionRatio 0
scalar FogNoLB.fog[58].server[0] totalJobs 518287
scalar FogNoLB.fog[58].server[0] droppedJobsQueue 1172
scalar FogNoLB.fog[58].server[0] droppedJobsTimout 3128
scalar FogNoLB.fog[58].server[0] droppedJobsSLA 0
scalar FogNoLB.fog[58].server[0] droppedJobsTotal 4300
scalar FogNoLB.fog[59].dispatcher localJobs 515670
scalar FogNoLB.fog[59].dispatcher remoteJobs 0
scalar FogNoLB.fog[59].dispatcher probeQueries 0
scalar FogNoLB.fog[59].dispatcher probeAnswers 0
scalar FogNoLB.fog[59].dispatcher droppedJobsSLA 0
scalar FogNoLB.fog[59].dispatcher jobs_class_1 515670
scalar FogNoLB.fog[59].dispatcher localJobs_class_1 515670
scalar FogNoLB.fog[59].server[0] rho 0.79565423727036
scalar FogNoLB.fog[59].server[0] congestionRatio 0
scalar FogNoLB.fog[59].server[0] totalJobs 515670
scalar FogNoLB.fog[59].server[0] droppedJobsQueue 1079
scalar FogNoLB.fog[59].server[0] droppedJobsTimout 3015
scalar FogNoLB.fog[59].server[0] droppedJobsSLA 0
scalar FogNoLB.fog[59].server[0] droppedJobsTotal 4094
scalar FogNoLB.fog[60].dispatcher localJobs 517633
scalar FogNoLB.fog[60].dispatcher remoteJobs 0
scalar FogNoLB.fog[60].dispatcher probeQueries 0
scalar FogNoLB.fog[60].dispatcher probeAnswers 0
scalar FogNoLB.fog[60].dispatcher droppedJobsSLA 0
scalar FogNoLB.fog[60].dispatcher jobs_class_1 517633
scalar FogNoLB.fog[60].dispatcher localJobs_class_1 517633
scalar FogNoLB.fog[60].server[0] rho 0.79843628406525
scalar FogNoLB.fog[60].server[0] congestionRatio 0
scalar FogNoLB.fog[60].server[0] totalJobs 517633
scalar FogNoLB.fog[60].server[0] droppedJobsQueue 1207
scalar FogNoLB.fog[60].server[0] droppedJobsTimout 3144
scalar FogNoLB.fog[60].server[0] droppedJobsSLA 0
scalar FogNoLB.fog[60].server[0] droppedJobsTotal 4351
scalar FogNoLB.fog[61].dispatcher localJobs 516610
scalar FogNoLB.fog[61].dispatcher remoteJobs 0
scalar FogNoLB.fog[61].dispatcher probeQueries 0
scalar FogNoLB.fog[61].dispatcher probeAnswers 0
scalar FogNoLB.fog[61].dispatcher droppedJobsSLA 0
scalar FogNoLB.fog[61].dispatcher jobs_class_1 516610
scalar FogNoLB.fog[61].dispatcher localJobs_class_1 516610
scalar FogNoLB.fog[61].server[0] rho 0.79699456691742
scalar FogNoLB.fog[61].server[0] congestionRatio 0
scalar FogNoLB.fog[61].server[0] totalJobs 516610
scalar FogNoLB.fog[61].server[0] droppedJobsQueue 1117
scalar FogNoLB.fog[61].server[0] droppedJobsTimout 2848
scalar FogNoLB.fog[61].server[0] droppedJobsSLA 0
scalar FogNoLB.fog[61].server[0] droppedJobsTotal 3965
scalar FogNoLB.fog[62].dispatcher localJobs 517456
scalar FogNoLB.fog[62].dispatcher remoteJobs 0
scalar FogNoLB.fog[62].dispatcher probeQueries 0
scalar FogNoLB.fog[62].dispatcher probeAnswers 0
scalar FogNoLB.fog[62].dispatcher droppedJobsSLA 0
scalar FogNoLB.fog[62].dispatcher jobs_class_1 517456
scalar FogNoLB.fog[62].dispatcher localJobs_class_1 517456
scalar FogNoLB.fog[62].server[0] rho 0.79820227622986
scalar FogNoLB.fog[62].server[0] congestionRatio 0
scalar FogNoLB.fog[62].server[0] totalJobs 517456
scalar FogNoLB.fog[62].server[0] droppedJobsQueue 1222
scalar FogNoLB.fog[62].server[0] droppedJobsTimout 3135
scalar FogNoLB.fog[62].server[0] droppedJobsSLA 0
scalar FogNoLB.fog[62].server[0] droppedJobsTotal 4357
scalar FogNoLB.fog[63].dispatcher localJobs 517225
scalar FogNoLB.fog[63].dispatcher remoteJobs 0
scalar FogNoLB.fog[63].dispatcher probeQueries 0
scalar FogNoLB.fog[63].dispatcher probeAnswers 0
scalar FogNoLB.fog[63].dispatcher droppedJobsSLA 0
scalar FogNoLB.fog[63].dispatcher jobs_class_1 517225
scalar FogNoLB.fog[63].dispatcher localJobs_class_1 517225
scalar FogNoLB.fog[63].server[0] rho 0.79779458045959
scalar FogNoLB.fog[63].server[0] congestionRatio 0
scalar FogNoLB.fog[63].server[0] totalJobs 517225
scalar FogNoLB.fog[63].server[0] droppedJobsQueue 1212
scalar FogNoLB.fog[63].server[0] droppedJobsTimout 3009
scalar FogNoLB.fog[63].server[0] droppedJobsSLA 0
scalar FogNoLB.fog[63].server[0] droppedJobsTotal 4221
scalar FogNoLB.fog[64].dispatcher localJobs 517419
scalar FogNoLB.fog[64].dispatcher remoteJobs 0
scalar FogNoLB.fog[64].dispatcher probeQueries 0
scalar FogNoLB.fog[64].dispatcher probeAnswers 0
scalar FogNoLB.fog[64].dispatcher droppedJobsSLA 0
scalar FogNoLB.fog[64].dispatcher jobs_class_1 517419
scalar FogNoLB.fog[64].dispatcher localJobs_class_1 517419
scalar FogNoLB.fog[64].server[0] rho 0.79820269346237
scalar FogNoLB.fog[64].server[0] congestionRatio 0
scalar FogNoLB.fog[64].server[0] totalJobs 517419
scalar FogNoLB.fog[64].server[0] droppedJobsQueue 1146
scalar FogNoLB.fog[64].server[0] droppedJobsTimout 3104
scalar FogNoLB.fog[64].server[0] droppedJobsSLA 0
scalar FogNoLB.fog[64].server[0] droppedJobsTotal 4250
scalar FogNoLB.fog[65].dispatcher localJobs 517885
scalar FogNoLB.fog[65].dispatcher remoteJobs 0
scalar FogNoLB.fog[65].dispatcher probeQueries 0
scalar FogNoLB.fog[65].dispatcher probeAnswers 0
scalar FogNoLB.fog[65].dispatcher droppedJobsSLA 0
scalar FogNoLB.fog[65].dispatcher jobs_class_1 517885
scalar FogNoLB.fog[65].dispatcher localJobs_class_1 517885
scalar FogNoLB.fog[65].server[0] rho 0.79880368709564
scalar FogNoLB.fog[65].server[0] congestionRatio 0
scalar FogNoLB.fog[65].server[0] totalJobs 517885
scalar FogNoLB.fog[65].server[0] droppedJobsQueue 1215
scalar FogNoLB.fog[65].server[0] droppedJobsTimout 3121
scalar FogNoLB.fog[65].server[0] droppedJobsSLA 0
scalar FogNoLB.fog[65].server[0] droppedJobsTotal 4336
scalar FogNoLB.fog[66].dispatcher localJobs 516859
scalar FogNoLB.fog[66].dispatcher remoteJobs 0
scalar FogNoLB.fog[66].dispatcher probeQueries 0
scalar FogNoLB.fog[66].dispatcher probeAnswers 0
scalar FogNoLB.fog[66].dispatcher droppedJobsSLA 0
scalar FogNoLB.fog[66].dispatcher jobs_class_1 516859
scalar FogNoLB.fog[66].dispatcher localJobs_class_1 516859
scalar FogNoLB.fog[66].server[0] rho 0.79729336500168
scalar FogNoLB.fog[66].server[0] congestionRatio 0
scalar FogNoLB.fog[66].server[0] totalJobs 516859
scalar FogNoLB.fog[66].server[0] droppedJobsQueue 1198
scalar FogNoLB.fog[66].server[0] droppedJobsTimout 3124
scalar FogNoLB.fog[66].server[0] droppedJobsSLA 0
scalar FogNoLB.fog[66].server[0] droppedJobsTotal 4322
scalar FogNoLB.fog[67].dispatcher localJobs 516847
scalar FogNoLB.fog[67].dispatcher remoteJobs 0
scalar FogNoLB.fog[67].dispatcher probeQueries 0
scalar FogNoLB.fog[67].dispatcher probeAnswers 0
scalar FogNoLB.fog[67].dispatcher droppedJobsSLA 0
scalar FogNoLB.fog[67].dispatcher jobs_class_1 516847
scalar FogNoLB.fog[67].dispatcher localJobs_class_1 516847
scalar FogNoLB.fog[67].server[0] rho 0.79736429452896
scalar FogNoLB.fog[67].server[0] congestionRatio 0
scalar FogNoLB.fog[67].server[0] totalJobs 516847
scalar FogNoLB.fog[67].server[0] droppedJobsQueue 1111
scalar FogNoLB.fog[67].server[0] droppedJobsTimout 3037
scalar FogNoLB.fog[67].server[0] droppedJobsSLA 0
scalar FogNoLB.fog[67].server[0] droppedJobsTotal 4148
scalar FogNoLB.fog[68].dispatcher localJobs 517123
scalar FogNoLB.fog[68].dispatcher remoteJobs 0
scalar FogNoLB.fog[68].dispatcher probeQueries 0
scalar FogNoLB.fog[68].dispatcher probeAnswers 0
scalar FogNoLB.fog[68].dispatcher droppedJobsSLA 0
scalar FogNoLB.fog[68].dispatcher jobs_class_1 517123
scalar FogNoLB.fog[68].dispatcher localJobs_class_1 517123
scalar FogNoLB.fog[68].server[0] rho 0.79761612415314
scalar FogNoLB.fog[68].server[0] congestionRatio 0
scalar FogNoLB.fog[68].server[0] totalJobs 517123
scalar FogNoLB.fog[68].server[0] droppedJobsQueue 1223
scalar FogNoLB.fog[68].server[0] droppedJobsTimout 3088
scalar FogNoLB.fog[68].server[0] droppedJobsSLA 0
scalar FogNoLB.fog[68].server[0] droppedJobsTotal 4311
scalar FogNoLB.fog[69].dispatcher localJobs 518117
scalar FogNoLB.fog[69].dispatcher remoteJobs 0
scalar FogNoLB.fog[69].dispatcher probeQueries 0
scalar FogNoLB.fog[69].dispatcher probeAnswers 0
scalar FogNoLB.fog[69].dispatcher droppedJobsSLA 0
scalar FogNoLB.fog[69].dispatcher jobs_class_1 518117
scalar FogNoLB.fog[69].dispatcher localJobs_class_1 518117
scalar FogNoLB.fog[69].server[0] rho 0.79924166202545
scalar FogNoLB.fog[69].server[0] congestionRatio 0
scalar FogNoLB.fog[69].server[0] totalJobs 518117
scalar FogNoLB.fog[69].server[0] droppedJobsQueue 1168
scalar FogNoLB.fog[69].server[0] droppedJobsTimout 3091
scalar FogNoLB.fog[69].server[0] droppedJobsSLA 0
scalar FogNoLB.fog[69].server[0] droppedJobsTotal 4259
scalar FogNoLB.fog[70].dispatcher localJobs 516937
scalar FogNoLB.fog[70].dispatcher remoteJobs 0
scalar FogNoLB.fog[70].dispatcher probeQueries 0
scalar FogNoLB.fog[70].dispatcher probeAnswers 0
scalar FogNoLB.fog[70].dispatcher droppedJobsSLA 0
scalar FogNoLB.fog[70].dispatcher jobs_class_1 516937
scalar FogNoLB.fog[70].dispatcher localJobs_class_1 516937
scalar FogNoLB.fog[70].server[0] rho 0.79737287759781
scalar FogNoLB.fog[70].server[0] congestionRatio 0
scalar FogNoLB.fog[70].server[0] totalJobs 516937
scalar FogNoLB.fog[70].server[0] droppedJobsQueue 1193
scalar FogNoLB.fog[70].server[0] droppedJobsTimout 3065
scalar FogNoLB.fog[70].server[0] droppedJobsSLA 0
scalar FogNoLB.fog[70].server[0] droppedJobsTotal 4258
scalar FogNoLB.fog[71].dispatcher localJobs 517658
scalar FogNoLB.fog[71].dispatcher remoteJobs 0
scalar FogNoLB.fog[71].dispatcher probeQueries 0
scalar FogNoLB.fog[71].dispatcher probeAnswers 0
scalar FogNoLB.fog[71].dispatcher droppedJobsSLA 0
scalar FogNoLB.fog[71].dispatcher jobs_class_1 517658
scalar FogNoLB.fog[71].dispatcher localJobs_class_1 517658
scalar FogNoLB.fog[71].server[0] rho 0.79840099811554
scalar FogNoLB.fog[71].server[0] congestionRatio 0
scalar FogNoLB.fog[71].server[0] totalJobs 517658
scalar FogNoLB.fog[71].server[0] droppedJobsQueue 1269
scalar FogNoLB.fog[71].server[0] droppedJobsTimout 3281
scalar FogNoLB.fog[71].server[0] droppedJobsSLA 0
scalar FogNoLB.fog[71].server[0] droppedJobsTotal 4550
scalar FogNoLB.fog[72].dispatcher localJobs 517744
scalar FogNoLB.fog[72].dispatcher remoteJobs 0
scalar FogNoLB.fog[72].dispatcher probeQueries 0
scalar FogNoLB.fog[72].dispatcher probeAnswers 0
scalar FogNoLB.fog[72].dispatcher droppedJobsSLA 0
scalar FogNoLB.fog[72].dispatcher jobs_class_1 517744
scalar FogNoLB.fog[72].dispatcher localJobs_class_1 517744
scalar FogNoLB.fog[72].server[0] rho 0.79872363805771
scalar FogNoLB.fog[72].server[0] congestionRatio 0
scalar FogNoLB.fog[72].server[0] totalJobs 517744
scalar FogNoLB.fog[72].server[0] droppedJobsQueue 1156
scalar FogNoLB.fog[72].server[0] droppedJobsTimout 3011
scalar FogNoLB.fog[72].server[0] droppedJobsSLA 0
scalar FogNoLB.fog[72].server[0] droppedJobsTotal 4167
scalar FogNoLB.fog[73].dispatcher localJobs 517292
scalar FogNoLB.fog[73].dispatcher remoteJobs 0
scalar FogNoLB.fog[73].dispatcher probeQueries 0
scalar FogNoLB.fog[73].dispatcher probeAnswers 0
scalar FogNoLB.fog[73].dispatcher droppedJobsSLA 0
scalar FogNoLB.fog[73].dispatcher jobs_class_1 517292
scalar FogNoLB.fog[73].dispatcher localJobs_class_1 517292
scalar FogNoLB.fog[73].server[0] rho 0.79799139499664
scalar FogNoLB.fog[73].server[0] congestionRatio 0
scalar FogNoLB.fog[73].server[0] totalJobs 517292
scalar FogNoLB.fog[73].server[0] droppedJobsQueue 1162
scalar FogNoLB.fog[73].server[0] droppedJobsTimout 3127
scalar FogNoLB.fog[73].server[0] droppedJobsSLA 0
scalar FogNoLB.fog[73].server[0] droppedJobsTotal 4289
scalar FogNoLB.fog[74].dispatcher localJobs 516776
scalar FogNoLB.fog[74].dispatcher remoteJobs 0
scalar FogNoLB.fog[74].dispatcher probeQueries 0
scalar FogNoLB.fog[74].dispatcher probeAnswers 0
scalar FogNoLB.fog[74].dispatcher droppedJobsSLA 0
scalar FogNoLB.fog[74].dispatcher jobs_class_1 516776
scalar FogNoLB.fog[74].dispatcher localJobs_class_1 516776
scalar FogNoLB.fog[74].server[0] rho 0.79712110757828
scalar FogNoLB.fog[74].server[0] congestionRatio 0
scalar FogNoLB.fog[74].server[0] totalJobs 516776
scalar FogNoLB.fog[74].server[0] droppedJobsQueue 1243
scalar FogNoLB.fog[74].server[0] droppedJobsTimout 3095
scalar FogNoLB.fog[74].server[0] droppedJobsSLA 0
scalar FogNoLB.fog[74].server[0] droppedJobsTotal 4338
scalar FogNoLB.fog[75].dispatcher localJobs 518516
scalar FogNoLB.fog[75].dispatcher remoteJobs 0
scalar FogNoLB.fog[75].dispatcher probeQueries 0
scalar FogNoLB.fog[75].dispatcher probeAnswers 0
scalar FogNoLB.fog[75].dispatcher droppedJobsSLA 0
scalar FogNoLB.fog[75].dispatcher jobs_class_1 518516
scalar FogNoLB.fog[75].dispatcher localJobs_class_1 518516
scalar FogNoLB.fog[75].server[0] rho 0.79970151185989
scalar FogNoLB.fog[75].server[0] congestionRatio 0
scalar FogNoLB.fog[75].server[0] totalJobs 518516
scalar FogNoLB.fog[75].server[0] droppedJobsQueue 1256
scalar FogNoLB.fog[75].server[0] droppedJobsTimout 3179
scalar FogNoLB.fog[75].server[0] droppedJobsSLA 0
scalar FogNoLB.fog[75].server[0] droppedJobsTotal 4435
scalar FogNoLB.fog[76].dispatcher localJobs 517837
scalar FogNoLB.fog[76].dispatcher remoteJobs 0
scalar FogNoLB.fog[76].dispatcher probeQueries 0
scalar FogNoLB.fog[76].dispatcher probeAnswers 0
scalar FogNoLB.fog[76].dispatcher droppedJobsSLA 0
scalar FogNoLB.fog[76].dispatcher jobs_class_1 517837
scalar FogNoLB.fog[76].dispatcher localJobs_class_1 517837
scalar FogNoLB.fog[76].server[0] rho 0.79865336418152
scalar FogNoLB.fog[76].server[0] congestionRatio 0
scalar FogNoLB.fog[76].server[0] totalJobs 517837
scalar FogNoLB.fog[76].server[0] droppedJobsQueue 1303
scalar FogNoLB.fog[76].server[0] droppedJobsTimout 3351
scalar FogNoLB.fog[76].server[0] droppedJobsSLA 0
scalar FogNoLB.fog[76].server[0] droppedJobsTotal 4654
scalar FogNoLB.fog[77].dispatcher localJobs 515759
scalar FogNoLB.fog[77].dispatcher remoteJobs 0
scalar FogNoLB.fog[77].dispatcher probeQueries 0
scalar FogNoLB.fog[77].dispatcher probeAnswers 0
scalar FogNoLB.fog[77].dispatcher droppedJobsSLA 0
scalar FogNoLB.fog[77].dispatcher jobs_class_1 515759
scalar FogNoLB.fog[77].dispatcher localJobs_class_1 515759
scalar FogNoLB.fog[77].server[0] rho 0.7956120967865
scalar FogNoLB.fog[77].server[0] congestionRatio 0
scalar FogNoLB.fog[77].server[0] totalJobs 515759
scalar FogNoLB.fog[77].server[0] droppedJobsQueue 1164
scalar FogNoLB.fog[77].server[0] droppedJobsTimout 3073
scalar FogNoLB.fog[77].server[0] droppedJobsSLA 0
scalar FogNoLB.fog[77].server[0] droppedJobsTotal 4237
scalar FogNoLB.fog[78].dispatcher localJobs 518015
scalar FogNoLB.fog[78].dispatcher remoteJobs 0
scalar FogNoLB.fog[78].dispatcher probeQueries 0
scalar FogNoLB.fog[78].dispatcher probeAnswers 0
scalar FogNoLB.fog[78].dispatcher droppedJobsSLA 0
scalar FogNoLB.fog[78].dispatcher jobs_class_1 518015
scalar FogNoLB.fog[78].dispatcher localJobs_class_1 518015
scalar FogNoLB.fog[78].server[0] rho 0.79911822080612
scalar FogNoLB.fog[78].server[0] congestionRatio 0
scalar FogNoLB.fog[78].server[0] totalJobs 518015
scalar FogNoLB.fog[78].server[0] droppedJobsQueue 1180
scalar FogNoLB.fog[78].server[0] droppedJobsTimout 3135
scalar FogNoLB.fog[78].server[0] droppedJobsSLA 0
scalar FogNoLB.fog[78].server[0] droppedJobsTotal 4315
scalar FogNoLB.fog[79].dispatcher localJobs 516593
scalar FogNoLB.fog[79].dispatcher remoteJobs 0
scalar FogNoLB.fog[79].dispatcher probeQueries 0
scalar FogNoLB.fog[79].dispatcher probeAnswers 0
scalar FogNoLB.fog[79].dispatcher droppedJobsSLA 0
scalar FogNoLB.fog[79].dispatcher jobs_class_1 516593
scalar FogNoLB.fog[79].dispatcher localJobs_class_1 516593
scalar FogNoLB.fog[79].server[0] rho 0.79686200618744
scalar FogNoLB.fog[79].server[0] congestionRatio 0
scalar FogNoLB.fog[79].server[0] totalJobs 516593
scalar FogNoLB.fog[79].server[0] droppedJobsQueue 1197
scalar FogNoLB.fog[79].server[0] droppedJobsTimout 3100
scalar FogNoLB.fog[79].server[0] droppedJobsSLA 0
scalar FogNoLB.fog[79].server[0] droppedJobsTotal 4297
scalar FogNoLB.fog[80].dispatcher localJobs 517901
scalar FogNoLB.fog[80].dispatcher remoteJobs 0
scalar FogNoLB.fog[80].dispatcher probeQueries 0
scalar FogNoLB.fog[80].dispatcher probeAnswers 0
scalar FogNoLB.fog[80].dispatcher droppedJobsSLA 0
scalar FogNoLB.fog[80].dispatcher jobs_class_1 517901
scalar FogNoLB.fog[80].dispatcher localJobs_class_1 517901
scalar FogNoLB.fog[80].server[0] rho 0.79891246557236
scalar FogNoLB.fog[80].server[0] congestionRatio 0
scalar FogNoLB.fog[80].server[0] totalJobs 517901
scalar FogNoLB.fog[80].server[0] droppedJobsQueue 1176
scalar FogNoLB.fog[80].server[0] droppedJobsTimout 3027
scalar FogNoLB.fog[80].server[0] droppedJobsSLA 0
scalar FogNoLB.fog[80].server[0] droppedJobsTotal 4203
scalar FogNoLB.fog[81].dispatcher localJobs 518214
scalar FogNoLB.fog[81].dispatcher remoteJobs 0
scalar FogNoLB.fog[81].dispatcher probeQueries 0
scalar FogNoLB.fog[81].dispatcher probeAnswers 0
scalar FogNoLB.fog[81].dispatcher droppedJobsSLA 0
scalar FogNoLB.fog[81].dispatcher jobs_class_1 518214
scalar FogNoLB.fog[81].dispatcher localJobs_class_1 518214
scalar FogNoLB.fog[81].server[0] rho 0.79926490783691
scalar FogNoLB.fog[81].server[0] congestionRatio 0
scalar FogNoLB.fog[81].server[0] totalJobs 518214
scalar FogNoLB.fog[81].server[0] droppedJobsQueue 1254
scalar FogNoLB.fog[81].server[0] droppedJobsTimout 3310
scalar FogNoLB.fog[81].server[0] droppedJobsSLA 0
scalar FogNoLB.fog[81].server[0] droppedJobsTotal 4564
scalar FogNoLB.fog[82].dispatcher localJobs 517324
scalar FogNoLB.fog[82].dispatcher remoteJobs 0
scalar FogNoLB.fog[82].dispatcher probeQueries 0
scalar FogNoLB.fog[82].dispatcher probeAnswers 0
scalar FogNoLB.fog[82].dispatcher droppedJobsSLA 0
scalar FogNoLB.fog[82].dispatcher jobs_class_1 517324
scalar FogNoLB.fog[82].dispatcher localJobs_class_1 517324
scalar FogNoLB.fog[82].server[0] rho 0.79797625541687
scalar FogNoLB.fog[82].server[0] congestionRatio 0
scalar FogNoLB.fog[82].server[0] totalJobs 517324
scalar FogNoLB.fog[82].server[0] droppedJobsQueue 1201
scalar FogNoLB.fog[82].server[0] droppedJobsTimout 3093
scalar FogNoLB.fog[82].server[0] droppedJobsSLA 0
scalar FogNoLB.fog[82].server[0] droppedJobsTotal 4294
scalar FogNoLB.fog[83].dispatcher localJobs 517948
scalar FogNoLB.fog[83].dispatcher remoteJobs 0
scalar FogNoLB.fog[83].dispatcher probeQueries 0
scalar FogNoLB.fog[83].dispatcher probeAnswers 0
scalar FogNoLB.fog[83].dispatcher droppedJobsSLA 0
scalar FogNoLB.fog[83].dispatcher jobs_class_1 517948
scalar FogNoLB.fog[83].dispatcher localJobs_class_1 517948
scalar FogNoLB.fog[83].server[0] rho 0.79907441139221
scalar FogNoLB.fog[83].server[0] congestionRatio 0
scalar FogNoLB.fog[83].server[0] totalJobs 517948
scalar FogNoLB.fog[83].server[0] droppedJobsQueue 1138
scalar FogNoLB.fog[83].server[0] droppedJobsTimout 3023
scalar FogNoLB.fog[83].server[0] droppedJobsSLA 0
scalar FogNoLB.fog[83].server[0] droppedJobsTotal 4161
scalar FogNoLB.fog[84].dispatcher localJobs 517896
scalar FogNoLB.fog[84].dispatcher remoteJobs 0
scalar FogNoLB.fog[84].dispatcher probeQueries 0
scalar FogNoLB.fog[84].dispatcher probeAnswers 0
scalar FogNoLB.fog[84].dispatcher droppedJobsSLA 0
scalar FogNoLB.fog[84].dispatcher jobs_class_1 517896
scalar FogNoLB.fog[84].dispatcher localJobs_class_1 517896
scalar FogNoLB.fog[84].server[0] rho 0.79880738258362
scalar FogNoLB.fog[84].server[0] congestionRatio 0
scalar FogNoLB.fog[84].server[0] totalJobs 517896
scalar FogNoLB.fog[84].server[0] droppedJobsQueue 1208
scalar FogNoLB.fog[84].server[0] droppedJobsTimout 3081
scalar FogNoLB.fog[84].server[0] droppedJobsSLA 0
scalar FogNoLB.fog[84].server[0] droppedJobsTotal 4289
scalar FogNoLB.fog[85].dispatcher localJobs 516740
scalar FogNoLB.fog[85].dispatcher remoteJobs 0
scalar FogNoLB.fog[85].dispatcher probeQueries 0
scalar FogNoLB.fog[85].dispatcher probeAnswers 0
scalar FogNoLB.fog[85].dispatcher droppedJobsSLA 0
scalar FogNoLB.fog[85].dispatcher jobs_class_1 516740
scalar FogNoLB.fog[85].dispatcher localJobs_class_1 516740
scalar FogNoLB.fog[85].server[0] rho 0.79701805114746
scalar FogNoLB.fog[85].server[0] congestionRatio 0
scalar FogNoLB.fog[85].server[0] totalJobs 516740
scalar FogNoLB.fog[85].server[0] droppedJobsQueue 1230
scalar FogNoLB.fog[85].server[0] droppedJobsTimout 3011
scalar FogNoLB.fog[85].server[0] droppedJobsSLA 0
scalar FogNoLB.fog[85].server[0] droppedJobsTotal 4241
scalar FogNoLB.fog[86].dispatcher localJobs 518498
scalar FogNoLB.fog[86].dispatcher remoteJobs 0
scalar FogNoLB.fog[86].dispatcher probeQueries 0
scalar FogNoLB.fog[86].dispatcher probeAnswers 0
scalar FogNoLB.fog[86].dispatcher droppedJobsSLA 0
scalar FogNoLB.fog[86].dispatcher jobs_class_1 518498
scalar FogNoLB.fog[86].dispatcher localJobs_class_1 518498
scalar FogNoLB.fog[86].server[0] rho 0.79963254928589
scalar FogNoLB.fog[86].server[0] congestionRatio 0
scalar FogNoLB.fog[86].server[0] totalJobs 518498
scalar FogNoLB.fog[86].server[0] droppedJobsQueue 1317
scalar FogNoLB.fog[86].server[0] droppedJobsTimout 3509
scalar FogNoLB.fog[86].server[0] droppedJobsSLA 0
scalar FogNoLB.fog[86].server[0] droppedJobsTotal 4826
scalar FogNoLB.fog[87].dispatcher localJobs 516968
scalar FogNoLB.fog[87].dispatcher remoteJobs 0
scalar FogNoLB.fog[87].dispatcher probeQueries 0
scalar FogNoLB.fog[87].dispatcher probeAnswers 0
scalar FogNoLB.fog[87].dispatcher droppedJobsSLA 0
scalar FogNoLB.fog[87].dispatcher jobs_class_1 516968
scalar FogNoLB.fog[87].dispatcher localJobs_class_1 516968
scalar FogNoLB.fog[87].server[0] rho 0.79754555225372
scalar FogNoLB.fog[87].server[0] congestionRatio 0
scalar FogNoLB.fog[87].server[0] totalJobs 516968
scalar FogNoLB.fog[87].server[0] droppedJobsQueue 1126
scalar FogNoLB.fog[87].server[0] droppedJobsTimout 2989
scalar FogNoLB.fog[87].server[0] droppedJobsSLA 0
scalar FogNoLB.fog[87].server[0] droppedJobsTotal 4115
scalar FogNoLB.fog[88].dispatcher localJobs 517498
scalar FogNoLB.fog[88].dispatcher remoteJobs 0
scalar FogNoLB.fog[88].dispatcher probeQueries 0
scalar FogNoLB.fog[88].dispatcher probeAnswers 0
scalar FogNoLB.fog[88].dispatcher droppedJobsSLA 0
scalar FogNoLB.fog[88].dispatcher jobs_class_1 517498
scalar FogNoLB.fog[88].dispatcher localJobs_class_1 517498
scalar FogNoLB.fog[88].server[0] rho 0.79830157756805
scalar FogNoLB.fog[88].server[0] congestionRatio 0
scalar FogNoLB.fog[88].server[0] totalJobs 517498
scalar FogNoLB.fog[88].server[0] droppedJobsQueue 1166
scalar FogNoLB.fog[88].server[0] droppedJobsTimout 2986
scalar FogNoLB.fog[88].server[0] droppedJobsSLA 0
scalar FogNoLB.fog[88].server[0] droppedJobsTotal 4152
scalar FogNoLB.fog[89].dispatcher localJobs 517779
scalar FogNoLB.fog[89].dispatcher remoteJobs 0
scalar FogNoLB.fog[89].dispatcher probeQueries 0
scalar FogNoLB.fog[89].dispatcher probeAnswers 0
scalar FogNoLB.fog[89].dispatcher droppedJobsSLA 0
scalar FogNoLB.fog[89].dispatcher jobs_class_1 517779
scalar FogNoLB.fog[89].dispatcher localJobs_class_1 517779
scalar FogNoLB.fog[89].server[0] rho 0.79863655567169
scalar FogNoLB.fog[89].server[0] congestionRatio 0
scalar FogNoLB.fog[89].server[0] totalJobs 517779
scalar FogNoLB.fog[89].server[0] droppedJobsQueue 1219
scalar FogNoLB.fog[89].server[0] droppedJobsTimout 3142
scalar FogNoLB.fog[89].server[0] droppedJobsSLA 0
scalar FogNoLB.fog[89].server[0] droppedJobsTotal 4361
scalar FogNoLB.fog[90].dispatcher localJobs 517054
scalar FogNoLB.fog[90].dispatcher remoteJobs 0
scalar FogNoLB.fog[90].dispatcher probeQueries 0
scalar FogNoLB.fog[90].dispatcher probeAnswers 0
scalar FogNoLB.fog[90].dispatcher droppedJobsSLA 0
scalar FogNoLB.fog[90].dispatcher jobs_class_1 517054
scalar FogNoLB.fog[90].dispatcher localJobs_class_1 517054
scalar FogNoLB.fog[90].server[0] rho 0.79776513576508
scalar FogNoLB.fog[90].server[0] congestionRatio 0
scalar FogNoLB.fog[90].server[0] totalJobs 517054
scalar FogNoLB.fog[90].server[0] droppedJobsQueue 1073
scalar FogNoLB.fog[90].server[0] droppedJobsTimout 2893
scalar FogNoLB.fog[90].server[0] droppedJobsSLA 0
scalar FogNoLB.fog[90].server[0] droppedJobsTotal 3966
scalar FogNoLB.fog[91].dispatcher localJobs 516830
scalar FogNoLB.fog[91].dispatcher remoteJobs 0
scalar FogNoLB.fog[91].dispatcher probeQueries 0
scalar FogNoLB.fog[91].dispatcher probeAnswers 0
scalar FogNoLB.fog[91].dispatcher droppedJobsSLA 0
scalar FogNoLB.fog[91].dispatcher jobs_class_1 516830
scalar FogNoLB.fog[91].dispatcher localJobs_class_1 516830
scalar FogNoLB.fog[91].server[0] rho 0.7973193526268
scalar FogNoLB.fog[91].server[0] congestionRatio 0
scalar FogNoLB.fog[91].server[0] totalJobs 516830
scalar FogNoLB.fog[91].server[0] droppedJobsQueue 1152
scalar FogNoLB.fog[91].server[0] droppedJobsTimout 2948
scalar FogNoLB.fog[91].server[0] droppedJobsSLA 0
scalar FogNoLB.fog[91].server[0] droppedJobsTotal 4100
scalar FogNoLB.fog[92].dispatcher localJobs 517286
scalar FogNoLB.fog[92].dispatcher remoteJobs 0
scalar FogNoLB.fog[92].dispatcher probeQueries 0
scalar FogNoLB.fog[92].dispatcher probeAnswers 0
scalar FogNoLB.fog[92].dispatcher droppedJobsSLA 0
scalar FogNoLB.fog[92].dispatcher jobs_class_1 517286
scalar FogNoLB.fog[92].dispatcher localJobs_class_1 517286
scalar FogNoLB.fog[92].server[0] rho 0.79801517724991
scalar FogNoLB.fog[92].server[0] congestionRatio 0
scalar FogNoLB.fog[92].server[0] totalJobs 517286
scalar FogNoLB.fog[92].server[0] droppedJobsQueue 1167
scalar FogNoLB.fog[92].server[0] droppedJobsTimout 3030
scalar FogNoLB.fog[92].server[0] droppedJobsSLA 0
scalar FogNoLB.fog[92].server[0] droppedJobsTotal 4197
scalar FogNoLB.fog[93].dispatcher localJobs 517370
scalar FogNoLB.fog[93].dispatcher remoteJobs 0
scalar FogNoLB.fog[93].dispatcher probeQueries 0
scalar FogNoLB.fog[93].dispatcher probeAnswers 0
scalar FogNoLB.fog[93].dispatcher droppedJobsSLA 0
scalar FogNoLB.fog[93].dispatcher jobs_class_1 517370
scalar FogNoLB.fog[93].dispatcher localJobs_class_1 517370
scalar FogNoLB.fog[93].server[0] rho 0.79812282323837
scalar FogNoLB.fog[93].server[0] congestionRatio 0
scalar FogNoLB.fog[93].server[0] totalJobs 517370
scalar FogNoLB.fog[93].server[0] droppedJobsQueue 1152
scalar FogNoLB.fog[93].server[0] droppedJobsTimout 2905
scalar FogNoLB.fog[93].server[0] droppedJobsSLA 0
scalar FogNoLB.fog[93].server[0] droppedJobsTotal 4057
scalar FogNoLB.fog[94].dispatcher localJobs 516476
scalar FogNoLB.fog[94].dispatcher remoteJobs 0
scalar FogNoLB.fog[94].dispatcher probeQueries 0
scalar FogNoLB.fog[94].dispatcher probeAnswers 0
scalar FogNoLB.fog[94].dispatcher droppedJobsSLA 0
scalar FogNoLB.fog[94].dispatcher jobs_class_1 516476
scalar FogNoLB.fog[94].dispatcher localJobs_class_1 516476
scalar FogNoLB.fog[94].server[0] rho 0.79672849178314
scalar FogNoLB.fog[94].server[0] congestionRatio 0
scalar FogNoLB.fog[94].server[0] totalJobs 516476
scalar FogNoLB.fog[94].server[0] droppedJobsQueue 1156
scalar FogNoLB.fog[94].server[0] droppedJobsTimout 2933
scalar FogNoLB.fog[94].server[0] droppedJobsSLA 0
scalar FogNoLB.fog[94].server[0] droppedJobsTotal 4089
scalar FogNoLB.fog[95].dispatcher localJobs 517689
scalar FogNoLB.fog[95].dispatcher remoteJobs 0
scalar FogNoLB.fog[95].dispatcher probeQueries 0
scalar FogNoLB.fog[95].dispatcher probeAnswers 0
scalar FogNoLB.fog[95].dispatcher droppedJobsSLA 0
scalar FogNoLB.fog[95].dispatcher jobs_class_1 517689
scalar FogNoLB.fog[95].dispatcher localJobs_class_1 517689
scalar FogNoLB.fog[95].server[0] rho 0.79824823141098
scalar FogNoLB.fog[95].server[0] congestionRatio 0
scalar FogNoLB.fog[95].server[0] totalJobs 517689
scalar FogNoLB.fog[95].server[0] droppedJobsQueue 1361
scalar FogNoLB.fog[95].server[0] droppedJobsTimout 3327
scalar FogNoLB.fog[95].server[0] droppedJobsSLA 0
scalar FogNoLB.fog[95].server[0] droppedJobsTotal 4688
scalar FogNoLB.fog[96].dispatcher localJobs 518638
scalar FogNoLB.fog[96].dispatcher remoteJobs 0
scalar FogNoLB.fog[96].dispatcher probeQueries 0
scalar FogNoLB.fog[96].dispatcher probeAnswers 0
scalar FogNoLB.fog[96].dispatcher droppedJobsSLA 0
scalar FogNoLB.fog[96].dispatcher jobs_class_1 518638
scalar FogNoLB.fog[96].dispatcher localJobs_class_1 518638
scalar FogNoLB.fog[96].server[0] rho 0.79991787672043
scalar FogNoLB.fog[96].server[0] congestionRatio 0
scalar FogNoLB.fog[96].server[0] totalJobs 518638
scalar FogNoLB.fog[96].server[0] droppedJobsQueue 1246
scalar FogNoLB.fog[96].server[0] droppedJobsTimout 3289
scalar FogNoLB.fog[96].server[0] droppedJobsSLA 0
scalar FogNoLB.fog[96].server[0] droppedJobsTotal 4535
scalar FogNoLB.fog[97].dispatcher localJobs 517525
scalar FogNoLB.fog[97].dispatcher remoteJobs 0
scalar FogNoLB.fog[97].dispatcher probeQueries 0
scalar FogNoLB.fog[97].dispatcher probeAnswers 0
scalar FogNoLB.fog[97].dispatcher droppedJobsSLA 0
scalar FogNoLB.fog[97].dispatcher jobs_class_1 517525
scalar FogNoLB.fog[97].dispatcher localJobs_class_1 517525
scalar FogNoLB.fog[97].server[0] rho 0.79816597700119
scalar FogNoLB.fog[97].server[0] congestionRatio 0
scalar FogNoLB.fog[97].server[0] totalJobs 517525
scalar FogNoLB.fog[97].server[0] droppedJobsQueue 1281
scalar FogNoLB.fog[97].server[0] droppedJobsTimout 3373
scalar FogNoLB.fog[97].server[0] droppedJobsSLA 0
scalar FogNoLB.fog[97].server[0] droppedJobsTotal 4654
scalar FogNoLB.fog[98].dispatcher localJobs 516309
scalar FogNoLB.fog[98].dispatcher remoteJobs 0
scalar FogNoLB.fog[98].dispatcher probeQueries 0
scalar FogNoLB.fog[98].dispatcher probeAnswers 0
scalar FogNoLB.fog[98].dispatcher droppedJobsSLA 0
scalar FogNoLB.fog[98].dispatcher jobs_class_1 516309
scalar FogNoLB.fog[98].dispatcher localJobs_class_1 516309
scalar FogNoLB.fog[98].server[0] rho 0.79636865854263
scalar FogNoLB.fog[98].server[0] congestionRatio 0
scalar FogNoLB.fog[98].server[0] totalJobs 516309
scalar FogNoLB.fog[98].server[0] droppedJobsQueue 1255
scalar FogNoLB.fog[98].server[0] droppedJobsTimout 3168
scalar FogNoLB.fog[98].server[0] droppedJobsSLA 0
scalar FogNoLB.fog[98].server[0] droppedJobsTotal 4423
scalar FogNoLB.fog[99].dispatcher localJobs 518117
scalar FogNoLB.fog[99].dispatcher remoteJobs 0
scalar FogNoLB.fog[99].dispatcher probeQueries 0
scalar FogNoLB.fog[99].dispatcher probeAnswers 0
scalar FogNoLB.fog[99].dispatcher droppedJobsSLA 0
scalar FogNoLB.fog[99].dispatcher jobs_class_1 518117
scalar FogNoLB.fog[99].dispatcher localJobs_class_1 518117
scalar FogNoLB.fog[99].server[0] rho 0.79912567138672
scalar FogNoLB.fog[99].server[0] congestionRatio 0
scalar FogNoLB.fog[99].server[0] totalJobs 518117
scalar FogNoLB.fog[99].server[0] droppedJobsQueue 1247
scalar FogNoLB.fog[99].server[0] droppedJobsTimout 3119
scalar FogNoLB.fog[99].server[0] droppedJobsSLA 0
scalar FogNoLB.fog[99].server[0] droppedJobsTotal 4366
scalar FogNoLB.sink avg_responseTime_1 0.047286048296957
scalar FogNoLB.sink p90_responseTime_1 0.014825980871
scalar FogNoLB.sink med_responseTime_1 0.014825980871
scalar FogNoLB.sink avg_delayTime_1 0
scalar FogNoLB.sink p90_delayTime_1 0
scalar FogNoLB.sink med_delayTime_1 0
scalar FogNoLB.sink avg_queuingTime_1 0.030586081518681
scalar FogNoLB.sink p90_queuingTime_1 0
scalar FogNoLB.sink med_queuingTime_1 0
scalar FogNoLB.sink avg_serviceTime_1 0.016699966778296
scalar FogNoLB.sink p90_serviceTime_1 0.014645404052
scalar FogNoLB.sink med_serviceTime_1 0.014645404052
scalar FogNoLB.sink avg_balancerTime_1 0
scalar FogNoLB.sink p90_balancerTime_1 0
scalar FogNoLB.sink med_balancerTime_1 0
scalar FogNoLB.sink avg_balancerCount_1 1
scalar FogNoLB.sink p90_balancerCount_1 1
scalar FogNoLB.sink med_balancerCount_1 1

