version 2
run Fog-mul_001-rho_02-thr_4-4-20190711-16:53:07-45671
attr configname Fog-mul_001-rho_02-thr_4
attr datetime 20190711-16:53:07
attr experiment Fog-mul_001-rho_02-thr_4
attr inifile FogQueueLen.ini
attr iterationvars ""
attr iterationvarsf ""
attr measurement ""
attr network FogNoLB
attr processid 45671
attr repetition 4
attr replication #4
attr resultdir results
attr runnumber 4
attr seedset 4
param FogNoLB.proctimeMul 0.01
param FogNoLB.rho 0.2
param FogNoLB.fog[*].server[*].capacity 4
param FogNoLB.nSources 100
param FogNoLB.rho 0.9
param FogNoLB.proctimeMul 1.0
param FogNoLB.source[*].appId 1
param FogNoLB.fog[*].nServers 1
param FogNoLB.fog[*].dispatcher.fanOut 1
param FogNoLB.fog[*].server[*].timeSlice -1s
param FogNoLB.fog[*].server[*].capacity 5
param FogNoLB.fog[*].server[*].fifo true
param FogNoLB.fog[*].server[*].maxServiceTime -1s

scalar FogNoLB.fog[0].dispatcher localJobs 129138
scalar FogNoLB.fog[0].dispatcher remoteJobs 0
scalar FogNoLB.fog[0].dispatcher probeQueries 0
scalar FogNoLB.fog[0].dispatcher probeAnswers 0
scalar FogNoLB.fog[0].dispatcher droppedJobsSLA 0
scalar FogNoLB.fog[0].dispatcher jobs_class_1 129138
scalar FogNoLB.fog[0].dispatcher localJobs_class_1 129138
scalar FogNoLB.fog[0].server[0] rho 0.19967383146286
scalar FogNoLB.fog[0].server[0] congestionRatio 0
scalar FogNoLB.fog[0].server[0] totalJobs 129138
scalar FogNoLB.fog[0].server[0] droppedJobsQueue 4
scalar FogNoLB.fog[0].server[0] droppedJobsTimout 0
scalar FogNoLB.fog[0].server[0] droppedJobsSLA 0
scalar FogNoLB.fog[0].server[0] droppedJobsTotal 4
scalar FogNoLB.fog[1].dispatcher localJobs 129363
scalar FogNoLB.fog[1].dispatcher remoteJobs 0
scalar FogNoLB.fog[1].dispatcher probeQueries 0
scalar FogNoLB.fog[1].dispatcher probeAnswers 0
scalar FogNoLB.fog[1].dispatcher droppedJobsSLA 0
scalar FogNoLB.fog[1].dispatcher jobs_class_1 129363
scalar FogNoLB.fog[1].dispatcher localJobs_class_1 129363
scalar FogNoLB.fog[1].server[0] rho 0.2000388354063
scalar FogNoLB.fog[1].server[0] congestionRatio 0
scalar FogNoLB.fog[1].server[0] totalJobs 129363
scalar FogNoLB.fog[1].server[0] droppedJobsQueue 1
scalar FogNoLB.fog[1].server[0] droppedJobsTimout 0
scalar FogNoLB.fog[1].server[0] droppedJobsSLA 0
scalar FogNoLB.fog[1].server[0] droppedJobsTotal 1
scalar FogNoLB.fog[2].dispatcher localJobs 129348
scalar FogNoLB.fog[2].dispatcher remoteJobs 0
scalar FogNoLB.fog[2].dispatcher probeQueries 0
scalar FogNoLB.fog[2].dispatcher probeAnswers 0
scalar FogNoLB.fog[2].dispatcher droppedJobsSLA 0
scalar FogNoLB.fog[2].dispatcher jobs_class_1 129348
scalar FogNoLB.fog[2].dispatcher localJobs_class_1 129348
scalar FogNoLB.fog[2].server[0] rho 0.20000034570694
scalar FogNoLB.fog[2].server[0] congestionRatio 0
scalar FogNoLB.fog[2].server[0] totalJobs 129348
scalar FogNoLB.fog[2].server[0] droppedJobsQueue 1
scalar FogNoLB.fog[2].server[0] droppedJobsTimout 0
scalar FogNoLB.fog[2].server[0] droppedJobsSLA 0
scalar FogNoLB.fog[2].server[0] droppedJobsTotal 1
scalar FogNoLB.fog[3].dispatcher localJobs 129311
scalar FogNoLB.fog[3].dispatcher remoteJobs 0
scalar FogNoLB.fog[3].dispatcher probeQueries 0
scalar FogNoLB.fog[3].dispatcher probeAnswers 0
scalar FogNoLB.fog[3].dispatcher droppedJobsSLA 0
scalar FogNoLB.fog[3].dispatcher jobs_class_1 129311
scalar FogNoLB.fog[3].dispatcher localJobs_class_1 129311
scalar FogNoLB.fog[3].server[0] rho 0.19993804395199
scalar FogNoLB.fog[3].server[0] congestionRatio 0
scalar FogNoLB.fog[3].server[0] totalJobs 129311
scalar FogNoLB.fog[3].server[0] droppedJobsQueue 1
scalar FogNoLB.fog[3].server[0] droppedJobsTimout 0
scalar FogNoLB.fog[3].server[0] droppedJobsSLA 0
scalar FogNoLB.fog[3].server[0] droppedJobsTotal 1
scalar FogNoLB.fog[4].dispatcher localJobs 129357
scalar FogNoLB.fog[4].dispatcher remoteJobs 0
scalar FogNoLB.fog[4].dispatcher probeQueries 0
scalar FogNoLB.fog[4].dispatcher probeAnswers 0
scalar FogNoLB.fog[4].dispatcher droppedJobsSLA 0
scalar FogNoLB.fog[4].dispatcher jobs_class_1 129357
scalar FogNoLB.fog[4].dispatcher localJobs_class_1 129357
scalar FogNoLB.fog[4].server[0] rho 0.20003229379654
scalar FogNoLB.fog[4].server[0] congestionRatio 0
scalar FogNoLB.fog[4].server[0] totalJobs 129357
scalar FogNoLB.fog[4].server[0] droppedJobsQueue 1
scalar FogNoLB.fog[4].server[0] droppedJobsTimout 0
scalar FogNoLB.fog[4].server[0] droppedJobsSLA 0
scalar FogNoLB.fog[4].server[0] droppedJobsTotal 1
scalar FogNoLB.fog[5].dispatcher localJobs 129229
scalar FogNoLB.fog[5].dispatcher remoteJobs 0
scalar FogNoLB.fog[5].dispatcher probeQueries 0
scalar FogNoLB.fog[5].dispatcher probeAnswers 0
scalar FogNoLB.fog[5].dispatcher droppedJobsSLA 0
scalar FogNoLB.fog[5].dispatcher jobs_class_1 129229
scalar FogNoLB.fog[5].dispatcher localJobs_class_1 129229
scalar FogNoLB.fog[5].server[0] rho 0.19982868432999
scalar FogNoLB.fog[5].server[0] congestionRatio 0
scalar FogNoLB.fog[5].server[0] totalJobs 129229
scalar FogNoLB.fog[5].server[0] droppedJobsQueue 1
scalar FogNoLB.fog[5].server[0] droppedJobsTimout 0
scalar FogNoLB.fog[5].server[0] droppedJobsSLA 0
scalar FogNoLB.fog[5].server[0] droppedJobsTotal 1
scalar FogNoLB.fog[6].dispatcher localJobs 129059
scalar FogNoLB.fog[6].dispatcher remoteJobs 0
scalar FogNoLB.fog[6].dispatcher probeQueries 0
scalar FogNoLB.fog[6].dispatcher probeAnswers 0
scalar FogNoLB.fog[6].dispatcher droppedJobsSLA 0
scalar FogNoLB.fog[6].dispatcher jobs_class_1 129059
scalar FogNoLB.fog[6].dispatcher localJobs_class_1 129059
scalar FogNoLB.fog[6].server[0] rho 0.19955632090569
scalar FogNoLB.fog[6].server[0] congestionRatio 0
scalar FogNoLB.fog[6].server[0] totalJobs 129059
scalar FogNoLB.fog[6].server[0] droppedJobsQueue 1
scalar FogNoLB.fog[6].server[0] droppedJobsTimout 0
scalar FogNoLB.fog[6].server[0] droppedJobsSLA 0
scalar FogNoLB.fog[6].server[0] droppedJobsTotal 1
scalar FogNoLB.fog[7].dispatcher localJobs 128745
scalar FogNoLB.fog[7].dispatcher remoteJobs 0
scalar FogNoLB.fog[7].dispatcher probeQueries 0
scalar FogNoLB.fog[7].dispatcher probeAnswers 0
scalar FogNoLB.fog[7].dispatcher droppedJobsSLA 0
scalar FogNoLB.fog[7].dispatcher jobs_class_1 128745
scalar FogNoLB.fog[7].dispatcher localJobs_class_1 128745
scalar FogNoLB.fog[7].server[0] rho 0.19908834993839
scalar FogNoLB.fog[7].server[0] congestionRatio 0
scalar FogNoLB.fog[7].server[0] totalJobs 128745
scalar FogNoLB.fog[7].server[0] droppedJobsQueue 1
scalar FogNoLB.fog[7].server[0] droppedJobsTimout 0
scalar FogNoLB.fog[7].server[0] droppedJobsSLA 0
scalar FogNoLB.fog[7].server[0] droppedJobsTotal 1
scalar FogNoLB.fog[8].dispatcher localJobs 129685
scalar FogNoLB.fog[8].dispatcher remoteJobs 0
scalar FogNoLB.fog[8].dispatcher probeQueries 0
scalar FogNoLB.fog[8].dispatcher probeAnswers 0
scalar FogNoLB.fog[8].dispatcher droppedJobsSLA 0
scalar FogNoLB.fog[8].dispatcher jobs_class_1 129685
scalar FogNoLB.fog[8].dispatcher localJobs_class_1 129685
scalar FogNoLB.fog[8].server[0] rho 0.20055250823498
scalar FogNoLB.fog[8].server[0] congestionRatio 0
scalar FogNoLB.fog[8].server[0] totalJobs 129685
scalar FogNoLB.fog[8].server[0] droppedJobsQueue 2
scalar FogNoLB.fog[8].server[0] droppedJobsTimout 0
scalar FogNoLB.fog[8].server[0] droppedJobsSLA 0
scalar FogNoLB.fog[8].server[0] droppedJobsTotal 2
scalar FogNoLB.fog[9].dispatcher localJobs 129275
scalar FogNoLB.fog[9].dispatcher remoteJobs 0
scalar FogNoLB.fog[9].dispatcher probeQueries 0
scalar FogNoLB.fog[9].dispatcher probeAnswers 0
scalar FogNoLB.fog[9].dispatcher droppedJobsSLA 0
scalar FogNoLB.fog[9].dispatcher jobs_class_1 129275
scalar FogNoLB.fog[9].dispatcher localJobs_class_1 129275
scalar FogNoLB.fog[9].server[0] rho 0.1999047845602
scalar FogNoLB.fog[9].server[0] congestionRatio 0
scalar FogNoLB.fog[9].server[0] totalJobs 129275
scalar FogNoLB.fog[9].server[0] droppedJobsQueue 1
scalar FogNoLB.fog[9].server[0] droppedJobsTimout 0
scalar FogNoLB.fog[9].server[0] droppedJobsSLA 0
scalar FogNoLB.fog[9].server[0] droppedJobsTotal 1
scalar FogNoLB.fog[10].dispatcher localJobs 130129
scalar FogNoLB.fog[10].dispatcher remoteJobs 0
scalar FogNoLB.fog[10].dispatcher probeQueries 0
scalar FogNoLB.fog[10].dispatcher probeAnswers 0
scalar FogNoLB.fog[10].dispatcher droppedJobsSLA 0
scalar FogNoLB.fog[10].dispatcher jobs_class_1 130129
scalar FogNoLB.fog[10].dispatcher localJobs_class_1 130129
scalar FogNoLB.fog[10].server[0] rho 0.20120124518871
scalar FogNoLB.fog[10].server[0] congestionRatio 0
scalar FogNoLB.fog[10].server[0] totalJobs 130129
scalar FogNoLB.fog[10].server[0] droppedJobsQueue 0
scalar FogNoLB.fog[10].server[0] droppedJobsTimout 0
scalar FogNoLB.fog[10].server[0] droppedJobsSLA 0
scalar FogNoLB.fog[10].server[0] droppedJobsTotal 0
scalar FogNoLB.fog[11].dispatcher localJobs 129280
scalar FogNoLB.fog[11].dispatcher remoteJobs 0
scalar FogNoLB.fog[11].dispatcher probeQueries 0
scalar FogNoLB.fog[11].dispatcher probeAnswers 0
scalar FogNoLB.fog[11].dispatcher droppedJobsSLA 0
scalar FogNoLB.fog[11].dispatcher jobs_class_1 129280
scalar FogNoLB.fog[11].dispatcher localJobs_class_1 129280
scalar FogNoLB.fog[11].server[0] rho 0.1998974531889
scalar FogNoLB.fog[11].server[0] congestionRatio 0
scalar FogNoLB.fog[11].server[0] totalJobs 129280
scalar FogNoLB.fog[11].server[0] droppedJobsQueue 2
scalar FogNoLB.fog[11].server[0] droppedJobsTimout 0
scalar FogNoLB.fog[11].server[0] droppedJobsSLA 0
scalar FogNoLB.fog[11].server[0] droppedJobsTotal 2
scalar FogNoLB.fog[12].dispatcher localJobs 128929
scalar FogNoLB.fog[12].dispatcher remoteJobs 0
scalar FogNoLB.fog[12].dispatcher probeQueries 0
scalar FogNoLB.fog[12].dispatcher probeAnswers 0
scalar FogNoLB.fog[12].dispatcher droppedJobsSLA 0
scalar FogNoLB.fog[12].dispatcher jobs_class_1 128929
scalar FogNoLB.fog[12].dispatcher localJobs_class_1 128929
scalar FogNoLB.fog[12].server[0] rho 0.19937159121037
scalar FogNoLB.fog[12].server[0] congestionRatio 0
scalar FogNoLB.fog[12].server[0] totalJobs 128929
scalar FogNoLB.fog[12].server[0] droppedJobsQueue 0
scalar FogNoLB.fog[12].server[0] droppedJobsTimout 0
scalar FogNoLB.fog[12].server[0] droppedJobsSLA 0
scalar FogNoLB.fog[12].server[0] droppedJobsTotal 0
scalar FogNoLB.fog[13].dispatcher localJobs 129186
scalar FogNoLB.fog[13].dispatcher remoteJobs 0
scalar FogNoLB.fog[13].dispatcher probeQueries 0
scalar FogNoLB.fog[13].dispatcher probeAnswers 0
scalar FogNoLB.fog[13].dispatcher droppedJobsSLA 0
scalar FogNoLB.fog[13].dispatcher jobs_class_1 129186
scalar FogNoLB.fog[13].dispatcher localJobs_class_1 129186
scalar FogNoLB.fog[13].server[0] rho 0.19976334273815
scalar FogNoLB.fog[13].server[0] congestionRatio 0
scalar FogNoLB.fog[13].server[0] totalJobs 129186
scalar FogNoLB.fog[13].server[0] droppedJobsQueue 0
scalar FogNoLB.fog[13].server[0] droppedJobsTimout 0
scalar FogNoLB.fog[13].server[0] droppedJobsSLA 0
scalar FogNoLB.fog[13].server[0] droppedJobsTotal 0
scalar FogNoLB.fog[14].dispatcher localJobs 129201
scalar FogNoLB.fog[14].dispatcher remoteJobs 0
scalar FogNoLB.fog[14].dispatcher probeQueries 0
scalar FogNoLB.fog[14].dispatcher probeAnswers 0
scalar FogNoLB.fog[14].dispatcher droppedJobsSLA 0
scalar FogNoLB.fog[14].dispatcher jobs_class_1 129201
scalar FogNoLB.fog[14].dispatcher localJobs_class_1 129201
scalar FogNoLB.fog[14].server[0] rho 0.19977682828903
scalar FogNoLB.fog[14].server[0] congestionRatio 0
scalar FogNoLB.fog[14].server[0] totalJobs 129201
scalar FogNoLB.fog[14].server[0] droppedJobsQueue 0
scalar FogNoLB.fog[14].server[0] droppedJobsTimout 0
scalar FogNoLB.fog[14].server[0] droppedJobsSLA 0
scalar FogNoLB.fog[14].server[0] droppedJobsTotal 0
scalar FogNoLB.fog[15].dispatcher localJobs 129963
scalar FogNoLB.fog[15].dispatcher remoteJobs 0
scalar FogNoLB.fog[15].dispatcher probeQueries 0
scalar FogNoLB.fog[15].dispatcher probeAnswers 0
scalar FogNoLB.fog[15].dispatcher droppedJobsSLA 0
scalar FogNoLB.fog[15].dispatcher jobs_class_1 129963
scalar FogNoLB.fog[15].dispatcher localJobs_class_1 129963
scalar FogNoLB.fog[15].server[0] rho 0.20096988976002
scalar FogNoLB.fog[15].server[0] congestionRatio 0
scalar FogNoLB.fog[15].server[0] totalJobs 129963
scalar FogNoLB.fog[15].server[0] droppedJobsQueue 2
scalar FogNoLB.fog[15].server[0] droppedJobsTimout 0
scalar FogNoLB.fog[15].server[0] droppedJobsSLA 0
scalar FogNoLB.fog[15].server[0] droppedJobsTotal 2
scalar FogNoLB.fog[16].dispatcher localJobs 129386
scalar FogNoLB.fog[16].dispatcher remoteJobs 0
scalar FogNoLB.fog[16].dispatcher probeQueries 0
scalar FogNoLB.fog[16].dispatcher probeAnswers 0
scalar FogNoLB.fog[16].dispatcher droppedJobsSLA 0
scalar FogNoLB.fog[16].dispatcher jobs_class_1 129386
scalar FogNoLB.fog[16].dispatcher localJobs_class_1 129386
scalar FogNoLB.fog[16].server[0] rho 0.20008391141891
scalar FogNoLB.fog[16].server[0] congestionRatio 0
scalar FogNoLB.fog[16].server[0] totalJobs 129386
scalar FogNoLB.fog[16].server[0] droppedJobsQueue 1
scalar FogNoLB.fog[16].server[0] droppedJobsTimout 0
scalar FogNoLB.fog[16].server[0] droppedJobsSLA 0
scalar FogNoLB.fog[16].server[0] droppedJobsTotal 1
scalar FogNoLB.fog[17].dispatcher localJobs 129969
scalar FogNoLB.fog[17].dispatcher remoteJobs 0
scalar FogNoLB.fog[17].dispatcher probeQueries 0
scalar FogNoLB.fog[17].dispatcher probeAnswers 0
scalar FogNoLB.fog[17].dispatcher droppedJobsSLA 0
scalar FogNoLB.fog[17].dispatcher jobs_class_1 129969
scalar FogNoLB.fog[17].dispatcher localJobs_class_1 129969
scalar FogNoLB.fog[17].server[0] rho 0.20095443725586
scalar FogNoLB.fog[17].server[0] congestionRatio 0
scalar FogNoLB.fog[17].server[0] totalJobs 129969
scalar FogNoLB.fog[17].server[0] droppedJobsQueue 2
scalar FogNoLB.fog[17].server[0] droppedJobsTimout 0
scalar FogNoLB.fog[17].server[0] droppedJobsSLA 0
scalar FogNoLB.fog[17].server[0] droppedJobsTotal 2
scalar FogNoLB.fog[18].dispatcher localJobs 129182
scalar FogNoLB.fog[18].dispatcher remoteJobs 0
scalar FogNoLB.fog[18].dispatcher probeQueries 0
scalar FogNoLB.fog[18].dispatcher probeAnswers 0
scalar FogNoLB.fog[18].dispatcher droppedJobsSLA 0
scalar FogNoLB.fog[18].dispatcher jobs_class_1 129182
scalar FogNoLB.fog[18].dispatcher localJobs_class_1 129182
scalar FogNoLB.fog[18].server[0] rho 0.19973680377007
scalar FogNoLB.fog[18].server[0] congestionRatio 0
scalar FogNoLB.fog[18].server[0] totalJobs 129182
scalar FogNoLB.fog[18].server[0] droppedJobsQueue 1
scalar FogNoLB.fog[18].server[0] droppedJobsTimout 0
scalar FogNoLB.fog[18].server[0] droppedJobsSLA 0
scalar FogNoLB.fog[18].server[0] droppedJobsTotal 1
scalar FogNoLB.fog[19].dispatcher localJobs 129790
scalar FogNoLB.fog[19].dispatcher remoteJobs 0
scalar FogNoLB.fog[19].dispatcher probeQueries 0
scalar FogNoLB.fog[19].dispatcher probeAnswers 0
scalar FogNoLB.fog[19].dispatcher droppedJobsSLA 0
scalar FogNoLB.fog[19].dispatcher jobs_class_1 129790
scalar FogNoLB.fog[19].dispatcher localJobs_class_1 129790
scalar FogNoLB.fog[19].server[0] rho 0.20069618523121
scalar FogNoLB.fog[19].server[0] congestionRatio 0
scalar FogNoLB.fog[19].server[0] totalJobs 129790
scalar FogNoLB.fog[19].server[0] droppedJobsQueue 0
scalar FogNoLB.fog[19].server[0] droppedJobsTimout 0
scalar FogNoLB.fog[19].server[0] droppedJobsSLA 0
scalar FogNoLB.fog[19].server[0] droppedJobsTotal 0
scalar FogNoLB.fog[20].dispatcher localJobs 128991
scalar FogNoLB.fog[20].dispatcher remoteJobs 0
scalar FogNoLB.fog[20].dispatcher probeQueries 0
scalar FogNoLB.fog[20].dispatcher probeAnswers 0
scalar FogNoLB.fog[20].dispatcher droppedJobsSLA 0
scalar FogNoLB.fog[20].dispatcher jobs_class_1 128991
scalar FogNoLB.fog[20].dispatcher localJobs_class_1 128991
scalar FogNoLB.fog[20].server[0] rho 0.19944304227829
scalar FogNoLB.fog[20].server[0] congestionRatio 0
scalar FogNoLB.fog[20].server[0] totalJobs 128991
scalar FogNoLB.fog[20].server[0] droppedJobsQueue 0
scalar FogNoLB.fog[20].server[0] droppedJobsTimout 0
scalar FogNoLB.fog[20].server[0] droppedJobsSLA 0
scalar FogNoLB.fog[20].server[0] droppedJobsTotal 0
scalar FogNoLB.fog[21].dispatcher localJobs 129369
scalar FogNoLB.fog[21].dispatcher remoteJobs 0
scalar FogNoLB.fog[21].dispatcher probeQueries 0
scalar FogNoLB.fog[21].dispatcher probeAnswers 0
scalar FogNoLB.fog[21].dispatcher droppedJobsSLA 0
scalar FogNoLB.fog[21].dispatcher jobs_class_1 129369
scalar FogNoLB.fog[21].dispatcher localJobs_class_1 129369
scalar FogNoLB.fog[21].server[0] rho 0.20001950860023
scalar FogNoLB.fog[21].server[0] congestionRatio 0
scalar FogNoLB.fog[21].server[0] totalJobs 129369
scalar FogNoLB.fog[21].server[0] droppedJobsQueue 1
scalar FogNoLB.fog[21].server[0] droppedJobsTimout 0
scalar FogNoLB.fog[21].server[0] droppedJobsSLA 0
scalar FogNoLB.fog[21].server[0] droppedJobsTotal 1
scalar FogNoLB.fog[22].dispatcher localJobs 128932
scalar FogNoLB.fog[22].dispatcher remoteJobs 0
scalar FogNoLB.fog[22].dispatcher probeQueries 0
scalar FogNoLB.fog[22].dispatcher probeAnswers 0
scalar FogNoLB.fog[22].dispatcher droppedJobsSLA 0
scalar FogNoLB.fog[22].dispatcher jobs_class_1 128932
scalar FogNoLB.fog[22].dispatcher localJobs_class_1 128932
scalar FogNoLB.fog[22].server[0] rho 0.19936028122902
scalar FogNoLB.fog[22].server[0] congestionRatio 0
scalar FogNoLB.fog[22].server[0] totalJobs 128932
scalar FogNoLB.fog[22].server[0] droppedJobsQueue 0
scalar FogNoLB.fog[22].server[0] droppedJobsTimout 0
scalar FogNoLB.fog[22].server[0] droppedJobsSLA 0
scalar FogNoLB.fog[22].server[0] droppedJobsTotal 0
scalar FogNoLB.fog[23].dispatcher localJobs 129467
scalar FogNoLB.fog[23].dispatcher remoteJobs 0
scalar FogNoLB.fog[23].dispatcher probeQueries 0
scalar FogNoLB.fog[23].dispatcher probeAnswers 0
scalar FogNoLB.fog[23].dispatcher droppedJobsSLA 0
scalar FogNoLB.fog[23].dispatcher jobs_class_1 129467
scalar FogNoLB.fog[23].dispatcher localJobs_class_1 129467
scalar FogNoLB.fog[23].server[0] rho 0.20021323859692
scalar FogNoLB.fog[23].server[0] congestionRatio 0
scalar FogNoLB.fog[23].server[0] totalJobs 129467
scalar FogNoLB.fog[23].server[0] droppedJobsQueue 1
scalar FogNoLB.fog[23].server[0] droppedJobsTimout 0
scalar FogNoLB.fog[23].server[0] droppedJobsSLA 0
scalar FogNoLB.fog[23].server[0] droppedJobsTotal 1
scalar FogNoLB.fog[24].dispatcher localJobs 128911
scalar FogNoLB.fog[24].dispatcher remoteJobs 0
scalar FogNoLB.fog[24].dispatcher probeQueries 0
scalar FogNoLB.fog[24].dispatcher probeAnswers 0
scalar FogNoLB.fog[24].dispatcher droppedJobsSLA 0
scalar FogNoLB.fog[24].dispatcher jobs_class_1 128911
scalar FogNoLB.fog[24].dispatcher localJobs_class_1 128911
scalar FogNoLB.fog[24].server[0] rho 0.19933740794659
scalar FogNoLB.fog[24].server[0] congestionRatio 0
scalar FogNoLB.fog[24].server[0] totalJobs 128911
scalar FogNoLB.fog[24].server[0] droppedJobsQueue 0
scalar FogNoLB.fog[24].server[0] droppedJobsTimout 0
scalar FogNoLB.fog[24].server[0] droppedJobsSLA 0
scalar FogNoLB.fog[24].server[0] droppedJobsTotal 0
scalar FogNoLB.fog[25].dispatcher localJobs 128850
scalar FogNoLB.fog[25].dispatcher remoteJobs 0
scalar FogNoLB.fog[25].dispatcher probeQueries 0
scalar FogNoLB.fog[25].dispatcher probeAnswers 0
scalar FogNoLB.fog[25].dispatcher droppedJobsSLA 0
scalar FogNoLB.fog[25].dispatcher jobs_class_1 128850
scalar FogNoLB.fog[25].dispatcher localJobs_class_1 128850
scalar FogNoLB.fog[25].server[0] rho 0.19923694431782
scalar FogNoLB.fog[25].server[0] congestionRatio 0
scalar FogNoLB.fog[25].server[0] totalJobs 128850
scalar FogNoLB.fog[25].server[0] droppedJobsQueue 1
scalar FogNoLB.fog[25].server[0] droppedJobsTimout 0
scalar FogNoLB.fog[25].server[0] droppedJobsSLA 0
scalar FogNoLB.fog[25].server[0] droppedJobsTotal 1
scalar FogNoLB.fog[26].dispatcher localJobs 129178
scalar FogNoLB.fog[26].dispatcher remoteJobs 0
scalar FogNoLB.fog[26].dispatcher probeQueries 0
scalar FogNoLB.fog[26].dispatcher probeAnswers 0
scalar FogNoLB.fog[26].dispatcher droppedJobsSLA 0
scalar FogNoLB.fog[26].dispatcher jobs_class_1 129178
scalar FogNoLB.fog[26].dispatcher localJobs_class_1 129178
scalar FogNoLB.fog[26].server[0] rho 0.1997439712286
scalar FogNoLB.fog[26].server[0] congestionRatio 0
scalar FogNoLB.fog[26].server[0] totalJobs 129178
scalar FogNoLB.fog[26].server[0] droppedJobsQueue 2
scalar FogNoLB.fog[26].server[0] droppedJobsTimout 0
scalar FogNoLB.fog[26].server[0] droppedJobsSLA 0
scalar FogNoLB.fog[26].server[0] droppedJobsTotal 2
scalar FogNoLB.fog[27].dispatcher localJobs 129148
scalar FogNoLB.fog[27].dispatcher remoteJobs 0
scalar FogNoLB.fog[27].dispatcher probeQueries 0
scalar FogNoLB.fog[27].dispatcher probeAnswers 0
scalar FogNoLB.fog[27].dispatcher droppedJobsSLA 0
scalar FogNoLB.fog[27].dispatcher jobs_class_1 129148
scalar FogNoLB.fog[27].dispatcher localJobs_class_1 129148
scalar FogNoLB.fog[27].server[0] rho 0.19968464970589
scalar FogNoLB.fog[27].server[0] congestionRatio 0
scalar FogNoLB.fog[27].server[0] totalJobs 129148
scalar FogNoLB.fog[27].server[0] droppedJobsQueue 1
scalar FogNoLB.fog[27].server[0] droppedJobsTimout 0
scalar FogNoLB.fog[27].server[0] droppedJobsSLA 0
scalar FogNoLB.fog[27].server[0] droppedJobsTotal 1
scalar FogNoLB.fog[28].dispatcher localJobs 129273
scalar FogNoLB.fog[28].dispatcher remoteJobs 0
scalar FogNoLB.fog[28].dispatcher probeQueries 0
scalar FogNoLB.fog[28].dispatcher probeAnswers 0
scalar FogNoLB.fog[28].dispatcher droppedJobsSLA 0
scalar FogNoLB.fog[28].dispatcher jobs_class_1 129273
scalar FogNoLB.fog[28].dispatcher localJobs_class_1 129273
scalar FogNoLB.fog[28].server[0] rho 0.19988393783569
scalar FogNoLB.fog[28].server[0] congestionRatio 0
scalar FogNoLB.fog[28].server[0] totalJobs 129273
scalar FogNoLB.fog[28].server[0] droppedJobsQueue 1
scalar FogNoLB.fog[28].server[0] droppedJobsTimout 0
scalar FogNoLB.fog[28].server[0] droppedJobsSLA 0
scalar FogNoLB.fog[28].server[0] droppedJobsTotal 1
scalar FogNoLB.fog[29].dispatcher localJobs 128963
scalar FogNoLB.fog[29].dispatcher remoteJobs 0
scalar FogNoLB.fog[29].dispatcher probeQueries 0
scalar FogNoLB.fog[29].dispatcher probeAnswers 0
scalar FogNoLB.fog[29].dispatcher droppedJobsSLA 0
scalar FogNoLB.fog[29].dispatcher jobs_class_1 128963
scalar FogNoLB.fog[29].dispatcher localJobs_class_1 128963
scalar FogNoLB.fog[29].server[0] rho 0.19940155744553
scalar FogNoLB.fog[29].server[0] congestionRatio 0
scalar FogNoLB.fog[29].server[0] totalJobs 128963
scalar FogNoLB.fog[29].server[0] droppedJobsQueue 2
scalar FogNoLB.fog[29].server[0] droppedJobsTimout 0
scalar FogNoLB.fog[29].server[0] droppedJobsSLA 0
scalar FogNoLB.fog[29].server[0] droppedJobsTotal 2
scalar FogNoLB.fog[30].dispatcher localJobs 129458
scalar FogNoLB.fog[30].dispatcher remoteJobs 0
scalar FogNoLB.fog[30].dispatcher probeQueries 0
scalar FogNoLB.fog[30].dispatcher probeAnswers 0
scalar FogNoLB.fog[30].dispatcher droppedJobsSLA 0
scalar FogNoLB.fog[30].dispatcher jobs_class_1 129458
scalar FogNoLB.fog[30].dispatcher localJobs_class_1 129458
scalar FogNoLB.fog[30].server[0] rho 0.20017668604851
scalar FogNoLB.fog[30].server[0] congestionRatio 0
scalar FogNoLB.fog[30].server[0] totalJobs 129458
scalar FogNoLB.fog[30].server[0] droppedJobsQueue 3
scalar FogNoLB.fog[30].server[0] droppedJobsTimout 0
scalar FogNoLB.fog[30].server[0] droppedJobsSLA 0
scalar FogNoLB.fog[30].server[0] droppedJobsTotal 3
scalar FogNoLB.fog[31].dispatcher localJobs 128780
scalar FogNoLB.fog[31].dispatcher remoteJobs 0
scalar FogNoLB.fog[31].dispatcher probeQueries 0
scalar FogNoLB.fog[31].dispatcher probeAnswers 0
scalar FogNoLB.fog[31].dispatcher droppedJobsSLA 0
scalar FogNoLB.fog[31].dispatcher jobs_class_1 128780
scalar FogNoLB.fog[31].dispatcher localJobs_class_1 128780
scalar FogNoLB.fog[31].server[0] rho 0.19910863041878
scalar FogNoLB.fog[31].server[0] congestionRatio 0
scalar FogNoLB.fog[31].server[0] totalJobs 128780
scalar FogNoLB.fog[31].server[0] droppedJobsQueue 0
scalar FogNoLB.fog[31].server[0] droppedJobsTimout 0
scalar FogNoLB.fog[31].server[0] droppedJobsSLA 0
scalar FogNoLB.fog[31].server[0] droppedJobsTotal 0
scalar FogNoLB.fog[32].dispatcher localJobs 130304
scalar FogNoLB.fog[32].dispatcher remoteJobs 0
scalar FogNoLB.fog[32].dispatcher probeQueries 0
scalar FogNoLB.fog[32].dispatcher probeAnswers 0
scalar FogNoLB.fog[32].dispatcher droppedJobsSLA 0
scalar FogNoLB.fog[32].dispatcher jobs_class_1 130304
scalar FogNoLB.fog[32].dispatcher localJobs_class_1 130304
scalar FogNoLB.fog[32].server[0] rho 0.20149038732052
scalar FogNoLB.fog[32].server[0] congestionRatio 0
scalar FogNoLB.fog[32].server[0] totalJobs 130304
scalar FogNoLB.fog[32].server[0] droppedJobsQueue 0
scalar FogNoLB.fog[32].server[0] droppedJobsTimout 0
scalar FogNoLB.fog[32].server[0] droppedJobsSLA 0
scalar FogNoLB.fog[32].server[0] droppedJobsTotal 0
scalar FogNoLB.fog[33].dispatcher localJobs 129024
scalar FogNoLB.fog[33].dispatcher remoteJobs 0
scalar FogNoLB.fog[33].dispatcher probeQueries 0
scalar FogNoLB.fog[33].dispatcher probeAnswers 0
scalar FogNoLB.fog[33].dispatcher droppedJobsSLA 0
scalar FogNoLB.fog[33].dispatcher jobs_class_1 129024
scalar FogNoLB.fog[33].dispatcher localJobs_class_1 129024
scalar FogNoLB.fog[33].server[0] rho 0.19951336085796
scalar FogNoLB.fog[33].server[0] congestionRatio 0
scalar FogNoLB.fog[33].server[0] totalJobs 129024
scalar FogNoLB.fog[33].server[0] droppedJobsQueue 1
scalar FogNoLB.fog[33].server[0] droppedJobsTimout 0
scalar FogNoLB.fog[33].server[0] droppedJobsSLA 0
scalar FogNoLB.fog[33].server[0] droppedJobsTotal 1
scalar FogNoLB.fog[34].dispatcher localJobs 129106
scalar FogNoLB.fog[34].dispatcher remoteJobs 0
scalar FogNoLB.fog[34].dispatcher probeQueries 0
scalar FogNoLB.fog[34].dispatcher probeAnswers 0
scalar FogNoLB.fog[34].dispatcher droppedJobsSLA 0
scalar FogNoLB.fog[34].dispatcher jobs_class_1 129106
scalar FogNoLB.fog[34].dispatcher localJobs_class_1 129106
scalar FogNoLB.fog[34].server[0] rho 0.19963473081589
scalar FogNoLB.fog[34].server[0] congestionRatio 0
scalar FogNoLB.fog[34].server[0] totalJobs 129106
scalar FogNoLB.fog[34].server[0] droppedJobsQueue 1
scalar FogNoLB.fog[34].server[0] droppedJobsTimout 0
scalar FogNoLB.fog[34].server[0] droppedJobsSLA 0
scalar FogNoLB.fog[34].server[0] droppedJobsTotal 1
scalar FogNoLB.fog[35].dispatcher localJobs 129009
scalar FogNoLB.fog[35].dispatcher remoteJobs 0
scalar FogNoLB.fog[35].dispatcher probeQueries 0
scalar FogNoLB.fog[35].dispatcher probeAnswers 0
scalar FogNoLB.fog[35].dispatcher droppedJobsSLA 0
scalar FogNoLB.fog[35].dispatcher jobs_class_1 129009
scalar FogNoLB.fog[35].dispatcher localJobs_class_1 129009
scalar FogNoLB.fog[35].server[0] rho 0.19947697222233
scalar FogNoLB.fog[35].server[0] congestionRatio 0
scalar FogNoLB.fog[35].server[0] totalJobs 129009
scalar FogNoLB.fog[35].server[0] droppedJobsQueue 0
scalar FogNoLB.fog[35].server[0] droppedJobsTimout 0
scalar FogNoLB.fog[35].server[0] droppedJobsSLA 0
scalar FogNoLB.fog[35].server[0] droppedJobsTotal 0
scalar FogNoLB.fog[36].dispatcher localJobs 129364
scalar FogNoLB.fog[36].dispatcher remoteJobs 0
scalar FogNoLB.fog[36].dispatcher probeQueries 0
scalar FogNoLB.fog[36].dispatcher probeAnswers 0
scalar FogNoLB.fog[36].dispatcher droppedJobsSLA 0
scalar FogNoLB.fog[36].dispatcher jobs_class_1 129364
scalar FogNoLB.fog[36].dispatcher localJobs_class_1 129364
scalar FogNoLB.fog[36].server[0] rho 0.2000280469656
scalar FogNoLB.fog[36].server[0] congestionRatio 0
scalar FogNoLB.fog[36].server[0] totalJobs 129364
scalar FogNoLB.fog[36].server[0] droppedJobsQueue 1
scalar FogNoLB.fog[36].server[0] droppedJobsTimout 0
scalar FogNoLB.fog[36].server[0] droppedJobsSLA 0
scalar FogNoLB.fog[36].server[0] droppedJobsTotal 1
scalar FogNoLB.fog[37].dispatcher localJobs 129738
scalar FogNoLB.fog[37].dispatcher remoteJobs 0
scalar FogNoLB.fog[37].dispatcher probeQueries 0
scalar FogNoLB.fog[37].dispatcher probeAnswers 0
scalar FogNoLB.fog[37].dispatcher droppedJobsSLA 0
scalar FogNoLB.fog[37].dispatcher jobs_class_1 129738
scalar FogNoLB.fog[37].dispatcher localJobs_class_1 129738
scalar FogNoLB.fog[37].server[0] rho 0.20062090456486
scalar FogNoLB.fog[37].server[0] congestionRatio 0
scalar FogNoLB.fog[37].server[0] totalJobs 129738
scalar FogNoLB.fog[37].server[0] droppedJobsQueue 1
scalar FogNoLB.fog[37].server[0] droppedJobsTimout 0
scalar FogNoLB.fog[37].server[0] droppedJobsSLA 0
scalar FogNoLB.fog[37].server[0] droppedJobsTotal 1
scalar FogNoLB.fog[38].dispatcher localJobs 128878
scalar FogNoLB.fog[38].dispatcher remoteJobs 0
scalar FogNoLB.fog[38].dispatcher probeQueries 0
scalar FogNoLB.fog[38].dispatcher probeAnswers 0
scalar FogNoLB.fog[38].dispatcher droppedJobsSLA 0
scalar FogNoLB.fog[38].dispatcher jobs_class_1 128878
scalar FogNoLB.fog[38].dispatcher localJobs_class_1 128878
scalar FogNoLB.fog[38].server[0] rho 0.19928023219109
scalar FogNoLB.fog[38].server[0] congestionRatio 0
scalar FogNoLB.fog[38].server[0] totalJobs 128878
scalar FogNoLB.fog[38].server[0] droppedJobsQueue 0
scalar FogNoLB.fog[38].server[0] droppedJobsTimout 0
scalar FogNoLB.fog[38].server[0] droppedJobsSLA 0
scalar FogNoLB.fog[38].server[0] droppedJobsTotal 0
scalar FogNoLB.fog[39].dispatcher localJobs 128675
scalar FogNoLB.fog[39].dispatcher remoteJobs 0
scalar FogNoLB.fog[39].dispatcher probeQueries 0
scalar FogNoLB.fog[39].dispatcher probeAnswers 0
scalar FogNoLB.fog[39].dispatcher droppedJobsSLA 0
scalar FogNoLB.fog[39].dispatcher jobs_class_1 128675
scalar FogNoLB.fog[39].dispatcher localJobs_class_1 128675
scalar FogNoLB.fog[39].server[0] rho 0.19896088540554
scalar FogNoLB.fog[39].server[0] congestionRatio 0
scalar FogNoLB.fog[39].server[0] totalJobs 128675
scalar FogNoLB.fog[39].server[0] droppedJobsQueue 1
scalar FogNoLB.fog[39].server[0] droppedJobsTimout 0
scalar FogNoLB.fog[39].server[0] droppedJobsSLA 0
scalar FogNoLB.fog[39].server[0] droppedJobsTotal 1
scalar FogNoLB.fog[40].dispatcher localJobs 129646
scalar FogNoLB.fog[40].dispatcher remoteJobs 0
scalar FogNoLB.fog[40].dispatcher probeQueries 0
scalar FogNoLB.fog[40].dispatcher probeAnswers 0
scalar FogNoLB.fog[40].dispatcher droppedJobsSLA 0
scalar FogNoLB.fog[40].dispatcher jobs_class_1 129646
scalar FogNoLB.fog[40].dispatcher localJobs_class_1 129646
scalar FogNoLB.fog[40].server[0] rho 0.20046848058701
scalar FogNoLB.fog[40].server[0] congestionRatio 0
scalar FogNoLB.fog[40].server[0] totalJobs 129646
scalar FogNoLB.fog[40].server[0] droppedJobsQueue 0
scalar FogNoLB.fog[40].server[0] droppedJobsTimout 0
scalar FogNoLB.fog[40].server[0] droppedJobsSLA 0
scalar FogNoLB.fog[40].server[0] droppedJobsTotal 0
scalar FogNoLB.fog[41].dispatcher localJobs 129630
scalar FogNoLB.fog[41].dispatcher remoteJobs 0
scalar FogNoLB.fog[41].dispatcher probeQueries 0
scalar FogNoLB.fog[41].dispatcher probeAnswers 0
scalar FogNoLB.fog[41].dispatcher droppedJobsSLA 0
scalar FogNoLB.fog[41].dispatcher jobs_class_1 129630
scalar FogNoLB.fog[41].dispatcher localJobs_class_1 129630
scalar FogNoLB.fog[41].server[0] rho 0.20045371353626
scalar FogNoLB.fog[41].server[0] congestionRatio 0
scalar FogNoLB.fog[41].server[0] totalJobs 129630
scalar FogNoLB.fog[41].server[0] droppedJobsQueue 1
scalar FogNoLB.fog[41].server[0] droppedJobsTimout 0
scalar FogNoLB.fog[41].server[0] droppedJobsSLA 0
scalar FogNoLB.fog[41].server[0] droppedJobsTotal 1
scalar FogNoLB.fog[42].dispatcher localJobs 128696
scalar FogNoLB.fog[42].dispatcher remoteJobs 0
scalar FogNoLB.fog[42].dispatcher probeQueries 0
scalar FogNoLB.fog[42].dispatcher probeAnswers 0
scalar FogNoLB.fog[42].dispatcher droppedJobsSLA 0
scalar FogNoLB.fog[42].dispatcher jobs_class_1 128696
scalar FogNoLB.fog[42].dispatcher localJobs_class_1 128696
scalar FogNoLB.fog[42].server[0] rho 0.19900235533714
scalar FogNoLB.fog[42].server[0] congestionRatio 0
scalar FogNoLB.fog[42].server[0] totalJobs 128696
scalar FogNoLB.fog[42].server[0] droppedJobsQueue 6
scalar FogNoLB.fog[42].server[0] droppedJobsTimout 0
scalar FogNoLB.fog[42].server[0] droppedJobsSLA 0
scalar FogNoLB.fog[42].server[0] droppedJobsTotal 6
scalar FogNoLB.fog[43].dispatcher localJobs 128662
scalar FogNoLB.fog[43].dispatcher remoteJobs 0
scalar FogNoLB.fog[43].dispatcher probeQueries 0
scalar FogNoLB.fog[43].dispatcher probeAnswers 0
scalar FogNoLB.fog[43].dispatcher droppedJobsSLA 0
scalar FogNoLB.fog[43].dispatcher jobs_class_1 128662
scalar FogNoLB.fog[43].dispatcher localJobs_class_1 128662
scalar FogNoLB.fog[43].server[0] rho 0.19895069301128
scalar FogNoLB.fog[43].server[0] congestionRatio 0
scalar FogNoLB.fog[43].server[0] totalJobs 128662
scalar FogNoLB.fog[43].server[0] droppedJobsQueue 2
scalar FogNoLB.fog[43].server[0] droppedJobsTimout 0
scalar FogNoLB.fog[43].server[0] droppedJobsSLA 0
scalar FogNoLB.fog[43].server[0] droppedJobsTotal 2
scalar FogNoLB.fog[44].dispatcher localJobs 129350
scalar FogNoLB.fog[44].dispatcher remoteJobs 0
scalar FogNoLB.fog[44].dispatcher probeQueries 0
scalar FogNoLB.fog[44].dispatcher probeAnswers 0
scalar FogNoLB.fog[44].dispatcher droppedJobsSLA 0
scalar FogNoLB.fog[44].dispatcher jobs_class_1 129350
scalar FogNoLB.fog[44].dispatcher localJobs_class_1 129350
scalar FogNoLB.fog[44].server[0] rho 0.20001016557217
scalar FogNoLB.fog[44].server[0] congestionRatio 0
scalar FogNoLB.fog[44].server[0] totalJobs 129350
scalar FogNoLB.fog[44].server[0] droppedJobsQueue 2
scalar FogNoLB.fog[44].server[0] droppedJobsTimout 0
scalar FogNoLB.fog[44].server[0] droppedJobsSLA 0
scalar FogNoLB.fog[44].server[0] droppedJobsTotal 2
scalar FogNoLB.fog[45].dispatcher localJobs 130011
scalar FogNoLB.fog[45].dispatcher remoteJobs 0
scalar FogNoLB.fog[45].dispatcher probeQueries 0
scalar FogNoLB.fog[45].dispatcher probeAnswers 0
scalar FogNoLB.fog[45].dispatcher droppedJobsSLA 0
scalar FogNoLB.fog[45].dispatcher jobs_class_1 130011
scalar FogNoLB.fog[45].dispatcher localJobs_class_1 130011
scalar FogNoLB.fog[45].server[0] rho 0.20101918280125
scalar FogNoLB.fog[45].server[0] congestionRatio 0
scalar FogNoLB.fog[45].server[0] totalJobs 130011
scalar FogNoLB.fog[45].server[0] droppedJobsQueue 0
scalar FogNoLB.fog[45].server[0] droppedJobsTimout 0
scalar FogNoLB.fog[45].server[0] droppedJobsSLA 0
scalar FogNoLB.fog[45].server[0] droppedJobsTotal 0
scalar FogNoLB.fog[46].dispatcher localJobs 129104
scalar FogNoLB.fog[46].dispatcher remoteJobs 0
scalar FogNoLB.fog[46].dispatcher probeQueries 0
scalar FogNoLB.fog[46].dispatcher probeAnswers 0
scalar FogNoLB.fog[46].dispatcher droppedJobsSLA 0
scalar FogNoLB.fog[46].dispatcher jobs_class_1 129104
scalar FogNoLB.fog[46].dispatcher localJobs_class_1 129104
scalar FogNoLB.fog[46].server[0] rho 0.1996281594038
scalar FogNoLB.fog[46].server[0] congestionRatio 0
scalar FogNoLB.fog[46].server[0] totalJobs 129104
scalar FogNoLB.fog[46].server[0] droppedJobsQueue 1
scalar FogNoLB.fog[46].server[0] droppedJobsTimout 0
scalar FogNoLB.fog[46].server[0] droppedJobsSLA 0
scalar FogNoLB.fog[46].server[0] droppedJobsTotal 1
scalar FogNoLB.fog[47].dispatcher localJobs 128862
scalar FogNoLB.fog[47].dispatcher remoteJobs 0
scalar FogNoLB.fog[47].dispatcher probeQueries 0
scalar FogNoLB.fog[47].dispatcher probeAnswers 0
scalar FogNoLB.fog[47].dispatcher droppedJobsSLA 0
scalar FogNoLB.fog[47].dispatcher jobs_class_1 128862
scalar FogNoLB.fog[47].dispatcher localJobs_class_1 128862
scalar FogNoLB.fog[47].server[0] rho 0.19925718009472
scalar FogNoLB.fog[47].server[0] congestionRatio 0
scalar FogNoLB.fog[47].server[0] totalJobs 128862
scalar FogNoLB.fog[47].server[0] droppedJobsQueue 0
scalar FogNoLB.fog[47].server[0] droppedJobsTimout 0
scalar FogNoLB.fog[47].server[0] droppedJobsSLA 0
scalar FogNoLB.fog[47].server[0] droppedJobsTotal 0
scalar FogNoLB.fog[48].dispatcher localJobs 129186
scalar FogNoLB.fog[48].dispatcher remoteJobs 0
scalar FogNoLB.fog[48].dispatcher probeQueries 0
scalar FogNoLB.fog[48].dispatcher probeAnswers 0
scalar FogNoLB.fog[48].dispatcher droppedJobsSLA 0
scalar FogNoLB.fog[48].dispatcher jobs_class_1 129186
scalar FogNoLB.fog[48].dispatcher localJobs_class_1 129186
scalar FogNoLB.fog[48].server[0] rho 0.19975511729717
scalar FogNoLB.fog[48].server[0] congestionRatio 0
scalar FogNoLB.fog[48].server[0] totalJobs 129186
scalar FogNoLB.fog[48].server[0] droppedJobsQueue 0
scalar FogNoLB.fog[48].server[0] droppedJobsTimout 0
scalar FogNoLB.fog[48].server[0] droppedJobsSLA 0
scalar FogNoLB.fog[48].server[0] droppedJobsTotal 0
scalar FogNoLB.fog[49].dispatcher localJobs 128902
scalar FogNoLB.fog[49].dispatcher remoteJobs 0
scalar FogNoLB.fog[49].dispatcher probeQueries 0
scalar FogNoLB.fog[49].dispatcher probeAnswers 0
scalar FogNoLB.fog[49].dispatcher droppedJobsSLA 0
scalar FogNoLB.fog[49].dispatcher jobs_class_1 128902
scalar FogNoLB.fog[49].dispatcher localJobs_class_1 128902
scalar FogNoLB.fog[49].server[0] rho 0.19933041930199
scalar FogNoLB.fog[49].server[0] congestionRatio 0
scalar FogNoLB.fog[49].server[0] totalJobs 128902
scalar FogNoLB.fog[49].server[0] droppedJobsQueue 1
scalar FogNoLB.fog[49].server[0] droppedJobsTimout 0
scalar FogNoLB.fog[49].server[0] droppedJobsSLA 0
scalar FogNoLB.fog[49].server[0] droppedJobsTotal 1
scalar FogNoLB.fog[50].dispatcher localJobs 129114
scalar FogNoLB.fog[50].dispatcher remoteJobs 0
scalar FogNoLB.fog[50].dispatcher probeQueries 0
scalar FogNoLB.fog[50].dispatcher probeAnswers 0
scalar FogNoLB.fog[50].dispatcher droppedJobsSLA 0
scalar FogNoLB.fog[50].dispatcher jobs_class_1 129114
scalar FogNoLB.fog[50].dispatcher localJobs_class_1 129114
scalar FogNoLB.fog[50].server[0] rho 0.19965420663357
scalar FogNoLB.fog[50].server[0] congestionRatio 0
scalar FogNoLB.fog[50].server[0] totalJobs 129114
scalar FogNoLB.fog[50].server[0] droppedJobsQueue 1
scalar FogNoLB.fog[50].server[0] droppedJobsTimout 0
scalar FogNoLB.fog[50].server[0] droppedJobsSLA 0
scalar FogNoLB.fog[50].server[0] droppedJobsTotal 1
scalar FogNoLB.fog[51].dispatcher localJobs 129066
scalar FogNoLB.fog[51].dispatcher remoteJobs 0
scalar FogNoLB.fog[51].dispatcher probeQueries 0
scalar FogNoLB.fog[51].dispatcher probeAnswers 0
scalar FogNoLB.fog[51].dispatcher droppedJobsSLA 0
scalar FogNoLB.fog[51].dispatcher jobs_class_1 129066
scalar FogNoLB.fog[51].dispatcher localJobs_class_1 129066
scalar FogNoLB.fog[51].server[0] rho 0.19955782592297
scalar FogNoLB.fog[51].server[0] congestionRatio 0
scalar FogNoLB.fog[51].server[0] totalJobs 129066
scalar FogNoLB.fog[51].server[0] droppedJobsQueue 0
scalar FogNoLB.fog[51].server[0] droppedJobsTimout 0
scalar FogNoLB.fog[51].server[0] droppedJobsSLA 0
scalar FogNoLB.fog[51].server[0] droppedJobsTotal 0
scalar FogNoLB.fog[52].dispatcher localJobs 129079
scalar FogNoLB.fog[52].dispatcher remoteJobs 0
scalar FogNoLB.fog[52].dispatcher probeQueries 0
scalar FogNoLB.fog[52].dispatcher probeAnswers 0
scalar FogNoLB.fog[52].dispatcher droppedJobsSLA 0
scalar FogNoLB.fog[52].dispatcher jobs_class_1 129079
scalar FogNoLB.fog[52].dispatcher localJobs_class_1 129079
scalar FogNoLB.fog[52].server[0] rho 0.19959133863449
scalar FogNoLB.fog[52].server[0] congestionRatio 0
scalar FogNoLB.fog[52].server[0] totalJobs 129079
scalar FogNoLB.fog[52].server[0] droppedJobsQueue 0
scalar FogNoLB.fog[52].server[0] droppedJobsTimout 0
scalar FogNoLB.fog[52].server[0] droppedJobsSLA 0
scalar FogNoLB.fog[52].server[0] droppedJobsTotal 0
scalar FogNoLB.fog[53].dispatcher localJobs 129011
scalar FogNoLB.fog[53].dispatcher remoteJobs 0
scalar FogNoLB.fog[53].dispatcher probeQueries 0
scalar FogNoLB.fog[53].dispatcher probeAnswers 0
scalar FogNoLB.fog[53].dispatcher droppedJobsSLA 0
scalar FogNoLB.fog[53].dispatcher jobs_class_1 129011
scalar FogNoLB.fog[53].dispatcher localJobs_class_1 129011
scalar FogNoLB.fog[53].server[0] rho 0.19948133826256
scalar FogNoLB.fog[53].server[0] congestionRatio 0
scalar FogNoLB.fog[53].server[0] totalJobs 129011
scalar FogNoLB.fog[53].server[0] droppedJobsQueue 0
scalar FogNoLB.fog[53].server[0] droppedJobsTimout 0
scalar FogNoLB.fog[53].server[0] droppedJobsSLA 0
scalar FogNoLB.fog[53].server[0] droppedJobsTotal 0
scalar FogNoLB.fog[54].dispatcher localJobs 129400
scalar FogNoLB.fog[54].dispatcher remoteJobs 0
scalar FogNoLB.fog[54].dispatcher probeQueries 0
scalar FogNoLB.fog[54].dispatcher probeAnswers 0
scalar FogNoLB.fog[54].dispatcher droppedJobsSLA 0
scalar FogNoLB.fog[54].dispatcher jobs_class_1 129400
scalar FogNoLB.fog[54].dispatcher localJobs_class_1 129400
scalar FogNoLB.fog[54].server[0] rho 0.20008651912212
scalar FogNoLB.fog[54].server[0] congestionRatio 0
scalar FogNoLB.fog[54].server[0] totalJobs 129400
scalar FogNoLB.fog[54].server[0] droppedJobsQueue 1
scalar FogNoLB.fog[54].server[0] droppedJobsTimout 0
scalar FogNoLB.fog[54].server[0] droppedJobsSLA 0
scalar FogNoLB.fog[54].server[0] droppedJobsTotal 1
scalar FogNoLB.fog[55].dispatcher localJobs 129492
scalar FogNoLB.fog[55].dispatcher remoteJobs 0
scalar FogNoLB.fog[55].dispatcher probeQueries 0
scalar FogNoLB.fog[55].dispatcher probeAnswers 0
scalar FogNoLB.fog[55].dispatcher droppedJobsSLA 0
scalar FogNoLB.fog[55].dispatcher jobs_class_1 129492
scalar FogNoLB.fog[55].dispatcher localJobs_class_1 129492
scalar FogNoLB.fog[55].server[0] rho 0.20024515688419
scalar FogNoLB.fog[55].server[0] congestionRatio 0
scalar FogNoLB.fog[55].server[0] totalJobs 129492
scalar FogNoLB.fog[55].server[0] droppedJobsQueue 0
scalar FogNoLB.fog[55].server[0] droppedJobsTimout 0
scalar FogNoLB.fog[55].server[0] droppedJobsSLA 0
scalar FogNoLB.fog[55].server[0] droppedJobsTotal 0
scalar FogNoLB.fog[56].dispatcher localJobs 129276
scalar FogNoLB.fog[56].dispatcher remoteJobs 0
scalar FogNoLB.fog[56].dispatcher probeQueries 0
scalar FogNoLB.fog[56].dispatcher probeAnswers 0
scalar FogNoLB.fog[56].dispatcher droppedJobsSLA 0
scalar FogNoLB.fog[56].dispatcher jobs_class_1 129276
scalar FogNoLB.fog[56].dispatcher localJobs_class_1 129276
scalar FogNoLB.fog[56].server[0] rho 0.1999075114727
scalar FogNoLB.fog[56].server[0] congestionRatio 0
scalar FogNoLB.fog[56].server[0] totalJobs 129276
scalar FogNoLB.fog[56].server[0] droppedJobsQueue 0
scalar FogNoLB.fog[56].server[0] droppedJobsTimout 0
scalar FogNoLB.fog[56].server[0] droppedJobsSLA 0
scalar FogNoLB.fog[56].server[0] droppedJobsTotal 0
scalar FogNoLB.fog[57].dispatcher localJobs 129232
scalar FogNoLB.fog[57].dispatcher remoteJobs 0
scalar FogNoLB.fog[57].dispatcher probeQueries 0
scalar FogNoLB.fog[57].dispatcher probeAnswers 0
scalar FogNoLB.fog[57].dispatcher droppedJobsSLA 0
scalar FogNoLB.fog[57].dispatcher jobs_class_1 129232
scalar FogNoLB.fog[57].dispatcher localJobs_class_1 129232
scalar FogNoLB.fog[57].server[0] rho 0.19983015954494
scalar FogNoLB.fog[57].server[0] congestionRatio 0
scalar FogNoLB.fog[57].server[0] totalJobs 129232
scalar FogNoLB.fog[57].server[0] droppedJobsQueue 4
scalar FogNoLB.fog[57].server[0] droppedJobsTimout 0
scalar FogNoLB.fog[57].server[0] droppedJobsSLA 0
scalar FogNoLB.fog[57].server[0] droppedJobsTotal 4
scalar FogNoLB.fog[58].dispatcher localJobs 128852
scalar FogNoLB.fog[58].dispatcher remoteJobs 0
scalar FogNoLB.fog[58].dispatcher probeQueries 0
scalar FogNoLB.fog[58].dispatcher probeAnswers 0
scalar FogNoLB.fog[58].dispatcher droppedJobsSLA 0
scalar FogNoLB.fog[58].dispatcher jobs_class_1 128852
scalar FogNoLB.fog[58].dispatcher localJobs_class_1 128852
scalar FogNoLB.fog[58].server[0] rho 0.1992371827364
scalar FogNoLB.fog[58].server[0] congestionRatio 0
scalar FogNoLB.fog[58].server[0] totalJobs 128852
scalar FogNoLB.fog[58].server[0] droppedJobsQueue 3
scalar FogNoLB.fog[58].server[0] droppedJobsTimout 0
scalar FogNoLB.fog[58].server[0] droppedJobsSLA 0
scalar FogNoLB.fog[58].server[0] droppedJobsTotal 3
scalar FogNoLB.fog[59].dispatcher localJobs 129125
scalar FogNoLB.fog[59].dispatcher remoteJobs 0
scalar FogNoLB.fog[59].dispatcher probeQueries 0
scalar FogNoLB.fog[59].dispatcher probeAnswers 0
scalar FogNoLB.fog[59].dispatcher droppedJobsSLA 0
scalar FogNoLB.fog[59].dispatcher jobs_class_1 129125
scalar FogNoLB.fog[59].dispatcher localJobs_class_1 129125
scalar FogNoLB.fog[59].server[0] rho 0.19966131448746
scalar FogNoLB.fog[59].server[0] congestionRatio 0
scalar FogNoLB.fog[59].server[0] totalJobs 129125
scalar FogNoLB.fog[59].server[0] droppedJobsQueue 1
scalar FogNoLB.fog[59].server[0] droppedJobsTimout 0
scalar FogNoLB.fog[59].server[0] droppedJobsSLA 0
scalar FogNoLB.fog[59].server[0] droppedJobsTotal 1
scalar FogNoLB.fog[60].dispatcher localJobs 129542
scalar FogNoLB.fog[60].dispatcher remoteJobs 0
scalar FogNoLB.fog[60].dispatcher probeQueries 0
scalar FogNoLB.fog[60].dispatcher probeAnswers 0
scalar FogNoLB.fog[60].dispatcher droppedJobsSLA 0
scalar FogNoLB.fog[60].dispatcher jobs_class_1 129542
scalar FogNoLB.fog[60].dispatcher localJobs_class_1 129542
scalar FogNoLB.fog[60].server[0] rho 0.20029620826244
scalar FogNoLB.fog[60].server[0] congestionRatio 0
scalar FogNoLB.fog[60].server[0] totalJobs 129542
scalar FogNoLB.fog[60].server[0] droppedJobsQueue 0
scalar FogNoLB.fog[60].server[0] droppedJobsTimout 0
scalar FogNoLB.fog[60].server[0] droppedJobsSLA 0
scalar FogNoLB.fog[60].server[0] droppedJobsTotal 0
scalar FogNoLB.fog[61].dispatcher localJobs 129080
scalar FogNoLB.fog[61].dispatcher remoteJobs 0
scalar FogNoLB.fog[61].dispatcher probeQueries 0
scalar FogNoLB.fog[61].dispatcher probeAnswers 0
scalar FogNoLB.fog[61].dispatcher droppedJobsSLA 0
scalar FogNoLB.fog[61].dispatcher jobs_class_1 129080
scalar FogNoLB.fog[61].dispatcher localJobs_class_1 129080
scalar FogNoLB.fog[61].server[0] rho 0.19961494207382
scalar FogNoLB.fog[61].server[0] congestionRatio 0
scalar FogNoLB.fog[61].server[0] totalJobs 129080
scalar FogNoLB.fog[61].server[0] droppedJobsQueue 2
scalar FogNoLB.fog[61].server[0] droppedJobsTimout 0
scalar FogNoLB.fog[61].server[0] droppedJobsSLA 0
scalar FogNoLB.fog[61].server[0] droppedJobsTotal 2
scalar FogNoLB.fog[62].dispatcher localJobs 129619
scalar FogNoLB.fog[62].dispatcher remoteJobs 0
scalar FogNoLB.fog[62].dispatcher probeQueries 0
scalar FogNoLB.fog[62].dispatcher probeAnswers 0
scalar FogNoLB.fog[62].dispatcher droppedJobsSLA 0
scalar FogNoLB.fog[62].dispatcher jobs_class_1 129619
scalar FogNoLB.fog[62].dispatcher localJobs_class_1 129619
scalar FogNoLB.fog[62].server[0] rho 0.20042791962624
scalar FogNoLB.fog[62].server[0] congestionRatio 0
scalar FogNoLB.fog[62].server[0] totalJobs 129619
scalar FogNoLB.fog[62].server[0] droppedJobsQueue 1
scalar FogNoLB.fog[62].server[0] droppedJobsTimout 0
scalar FogNoLB.fog[62].server[0] droppedJobsSLA 0
scalar FogNoLB.fog[62].server[0] droppedJobsTotal 1
scalar FogNoLB.fog[63].dispatcher localJobs 129200
scalar FogNoLB.fog[63].dispatcher remoteJobs 0
scalar FogNoLB.fog[63].dispatcher probeQueries 0
scalar FogNoLB.fog[63].dispatcher probeAnswers 0
scalar FogNoLB.fog[63].dispatcher droppedJobsSLA 0
scalar FogNoLB.fog[63].dispatcher jobs_class_1 129200
scalar FogNoLB.fog[63].dispatcher localJobs_class_1 129200
scalar FogNoLB.fog[63].server[0] rho 0.19976198673248
scalar FogNoLB.fog[63].server[0] congestionRatio 0
scalar FogNoLB.fog[63].server[0] totalJobs 129200
scalar FogNoLB.fog[63].server[0] droppedJobsQueue 3
scalar FogNoLB.fog[63].server[0] droppedJobsTimout 0
scalar FogNoLB.fog[63].server[0] droppedJobsSLA 0
scalar FogNoLB.fog[63].server[0] droppedJobsTotal 3
scalar FogNoLB.fog[64].dispatcher localJobs 129400
scalar FogNoLB.fog[64].dispatcher remoteJobs 0
scalar FogNoLB.fog[64].dispatcher probeQueries 0
scalar FogNoLB.fog[64].dispatcher probeAnswers 0
scalar FogNoLB.fog[64].dispatcher droppedJobsSLA 0
scalar FogNoLB.fog[64].dispatcher jobs_class_1 129400
scalar FogNoLB.fog[64].dispatcher localJobs_class_1 129400
scalar FogNoLB.fog[64].server[0] rho 0.20008404552937
scalar FogNoLB.fog[64].server[0] congestionRatio 0
scalar FogNoLB.fog[64].server[0] totalJobs 129400
scalar FogNoLB.fog[64].server[0] droppedJobsQueue 0
scalar FogNoLB.fog[64].server[0] droppedJobsTimout 0
scalar FogNoLB.fog[64].server[0] droppedJobsSLA 0
scalar FogNoLB.fog[64].server[0] droppedJobsTotal 0
scalar FogNoLB.fog[65].dispatcher localJobs 129571
scalar FogNoLB.fog[65].dispatcher remoteJobs 0
scalar FogNoLB.fog[65].dispatcher probeQueries 0
scalar FogNoLB.fog[65].dispatcher probeAnswers 0
scalar FogNoLB.fog[65].dispatcher droppedJobsSLA 0
scalar FogNoLB.fog[65].dispatcher jobs_class_1 129571
scalar FogNoLB.fog[65].dispatcher localJobs_class_1 129571
scalar FogNoLB.fog[65].server[0] rho 0.20034925639629
scalar FogNoLB.fog[65].server[0] congestionRatio 0
scalar FogNoLB.fog[65].server[0] totalJobs 129571
scalar FogNoLB.fog[65].server[0] droppedJobsQueue 1
scalar FogNoLB.fog[65].server[0] droppedJobsTimout 0
scalar FogNoLB.fog[65].server[0] droppedJobsSLA 0
scalar FogNoLB.fog[65].server[0] droppedJobsTotal 1
scalar FogNoLB.fog[66].dispatcher localJobs 129409
scalar FogNoLB.fog[66].dispatcher remoteJobs 0
scalar FogNoLB.fog[66].dispatcher probeQueries 0
scalar FogNoLB.fog[66].dispatcher probeAnswers 0
scalar FogNoLB.fog[66].dispatcher droppedJobsSLA 0
scalar FogNoLB.fog[66].dispatcher jobs_class_1 129409
scalar FogNoLB.fog[66].dispatcher localJobs_class_1 129409
scalar FogNoLB.fog[66].server[0] rho 0.20011760294437
scalar FogNoLB.fog[66].server[0] congestionRatio 0
scalar FogNoLB.fog[66].server[0] totalJobs 129409
scalar FogNoLB.fog[66].server[0] droppedJobsQueue 1
scalar FogNoLB.fog[66].server[0] droppedJobsTimout 0
scalar FogNoLB.fog[66].server[0] droppedJobsSLA 0
scalar FogNoLB.fog[66].server[0] droppedJobsTotal 1
scalar FogNoLB.fog[67].dispatcher localJobs 129484
scalar FogNoLB.fog[67].dispatcher remoteJobs 0
scalar FogNoLB.fog[67].dispatcher probeQueries 0
scalar FogNoLB.fog[67].dispatcher probeAnswers 0
scalar FogNoLB.fog[67].dispatcher droppedJobsSLA 0
scalar FogNoLB.fog[67].dispatcher jobs_class_1 129484
scalar FogNoLB.fog[67].dispatcher localJobs_class_1 129484
scalar FogNoLB.fog[67].server[0] rho 0.20020002126694
scalar FogNoLB.fog[67].server[0] congestionRatio 0
scalar FogNoLB.fog[67].server[0] totalJobs 129484
scalar FogNoLB.fog[67].server[0] droppedJobsQueue 3
scalar FogNoLB.fog[67].server[0] droppedJobsTimout 0
scalar FogNoLB.fog[67].server[0] droppedJobsSLA 0
scalar FogNoLB.fog[67].server[0] droppedJobsTotal 3
scalar FogNoLB.fog[68].dispatcher localJobs 129182
scalar FogNoLB.fog[68].dispatcher remoteJobs 0
scalar FogNoLB.fog[68].dispatcher probeQueries 0
scalar FogNoLB.fog[68].dispatcher probeAnswers 0
scalar FogNoLB.fog[68].dispatcher droppedJobsSLA 0
scalar FogNoLB.fog[68].dispatcher jobs_class_1 129182
scalar FogNoLB.fog[68].dispatcher localJobs_class_1 129182
scalar FogNoLB.fog[68].server[0] rho 0.19972784817219
scalar FogNoLB.fog[68].server[0] congestionRatio 0
scalar FogNoLB.fog[68].server[0] totalJobs 129182
scalar FogNoLB.fog[68].server[0] droppedJobsQueue 2
scalar FogNoLB.fog[68].server[0] droppedJobsTimout 0
scalar FogNoLB.fog[68].server[0] droppedJobsSLA 0
scalar FogNoLB.fog[68].server[0] droppedJobsTotal 2
scalar FogNoLB.fog[69].dispatcher localJobs 129601
scalar FogNoLB.fog[69].dispatcher remoteJobs 0
scalar FogNoLB.fog[69].dispatcher probeQueries 0
scalar FogNoLB.fog[69].dispatcher probeAnswers 0
scalar FogNoLB.fog[69].dispatcher droppedJobsSLA 0
scalar FogNoLB.fog[69].dispatcher jobs_class_1 129601
scalar FogNoLB.fog[69].dispatcher localJobs_class_1 129601
scalar FogNoLB.fog[69].server[0] rho 0.20038883388042
scalar FogNoLB.fog[69].server[0] congestionRatio 0
scalar FogNoLB.fog[69].server[0] totalJobs 129601
scalar FogNoLB.fog[69].server[0] droppedJobsQueue 2
scalar FogNoLB.fog[69].server[0] droppedJobsTimout 0
scalar FogNoLB.fog[69].server[0] droppedJobsSLA 0
scalar FogNoLB.fog[69].server[0] droppedJobsTotal 2
scalar FogNoLB.fog[70].dispatcher localJobs 129708
scalar FogNoLB.fog[70].dispatcher remoteJobs 0
scalar FogNoLB.fog[70].dispatcher probeQueries 0
scalar FogNoLB.fog[70].dispatcher probeAnswers 0
scalar FogNoLB.fog[70].dispatcher droppedJobsSLA 0
scalar FogNoLB.fog[70].dispatcher jobs_class_1 129708
scalar FogNoLB.fog[70].dispatcher localJobs_class_1 129708
scalar FogNoLB.fog[70].server[0] rho 0.20057950913906
scalar FogNoLB.fog[70].server[0] congestionRatio 0
scalar FogNoLB.fog[70].server[0] totalJobs 129708
scalar FogNoLB.fog[70].server[0] droppedJobsQueue 0
scalar FogNoLB.fog[70].server[0] droppedJobsTimout 0
scalar FogNoLB.fog[70].server[0] droppedJobsSLA 0
scalar FogNoLB.fog[70].server[0] droppedJobsTotal 0
scalar FogNoLB.fog[71].dispatcher localJobs 128896
scalar FogNoLB.fog[71].dispatcher remoteJobs 0
scalar FogNoLB.fog[71].dispatcher probeQueries 0
scalar FogNoLB.fog[71].dispatcher probeAnswers 0
scalar FogNoLB.fog[71].dispatcher droppedJobsSLA 0
scalar FogNoLB.fog[71].dispatcher jobs_class_1 128896
scalar FogNoLB.fog[71].dispatcher localJobs_class_1 128896
scalar FogNoLB.fog[71].server[0] rho 0.19929631054401
scalar FogNoLB.fog[71].server[0] congestionRatio 0
scalar FogNoLB.fog[71].server[0] totalJobs 128896
scalar FogNoLB.fog[71].server[0] droppedJobsQueue 0
scalar FogNoLB.fog[71].server[0] droppedJobsTimout 0
scalar FogNoLB.fog[71].server[0] droppedJobsSLA 0
scalar FogNoLB.fog[71].server[0] droppedJobsTotal 0
scalar FogNoLB.fog[72].dispatcher localJobs 129067
scalar FogNoLB.fog[72].dispatcher remoteJobs 0
scalar FogNoLB.fog[72].dispatcher probeQueries 0
scalar FogNoLB.fog[72].dispatcher probeAnswers 0
scalar FogNoLB.fog[72].dispatcher droppedJobsSLA 0
scalar FogNoLB.fog[72].dispatcher jobs_class_1 129067
scalar FogNoLB.fog[72].dispatcher localJobs_class_1 129067
scalar FogNoLB.fog[72].server[0] rho 0.19956521689892
scalar FogNoLB.fog[72].server[0] congestionRatio 0
scalar FogNoLB.fog[72].server[0] totalJobs 129067
scalar FogNoLB.fog[72].server[0] droppedJobsQueue 1
scalar FogNoLB.fog[72].server[0] droppedJobsTimout 0
scalar FogNoLB.fog[72].server[0] droppedJobsSLA 0
scalar FogNoLB.fog[72].server[0] droppedJobsTotal 1
scalar FogNoLB.fog[73].dispatcher localJobs 129208
scalar FogNoLB.fog[73].dispatcher remoteJobs 0
scalar FogNoLB.fog[73].dispatcher probeQueries 0
scalar FogNoLB.fog[73].dispatcher probeAnswers 0
scalar FogNoLB.fog[73].dispatcher droppedJobsSLA 0
scalar FogNoLB.fog[73].dispatcher jobs_class_1 129208
scalar FogNoLB.fog[73].dispatcher localJobs_class_1 129208
scalar FogNoLB.fog[73].server[0] rho 0.19979071617126
scalar FogNoLB.fog[73].server[0] congestionRatio 0
scalar FogNoLB.fog[73].server[0] totalJobs 129208
scalar FogNoLB.fog[73].server[0] droppedJobsQueue 2
scalar FogNoLB.fog[73].server[0] droppedJobsTimout 0
scalar FogNoLB.fog[73].server[0] droppedJobsSLA 0
scalar FogNoLB.fog[73].server[0] droppedJobsTotal 2
scalar FogNoLB.fog[74].dispatcher localJobs 129480
scalar FogNoLB.fog[74].dispatcher remoteJobs 0
scalar FogNoLB.fog[74].dispatcher probeQueries 0
scalar FogNoLB.fog[74].dispatcher probeAnswers 0
scalar FogNoLB.fog[74].dispatcher droppedJobsSLA 0
scalar FogNoLB.fog[74].dispatcher jobs_class_1 129480
scalar FogNoLB.fog[74].dispatcher localJobs_class_1 129480
scalar FogNoLB.fog[74].server[0] rho 0.20021019876003
scalar FogNoLB.fog[74].server[0] congestionRatio 0
scalar FogNoLB.fog[74].server[0] totalJobs 129480
scalar FogNoLB.fog[74].server[0] droppedJobsQueue 0
scalar FogNoLB.fog[74].server[0] droppedJobsTimout 0
scalar FogNoLB.fog[74].server[0] droppedJobsSLA 0
scalar FogNoLB.fog[74].server[0] droppedJobsTotal 0
scalar FogNoLB.fog[75].dispatcher localJobs 130208
scalar FogNoLB.fog[75].dispatcher remoteJobs 0
scalar FogNoLB.fog[75].dispatcher probeQueries 0
scalar FogNoLB.fog[75].dispatcher probeAnswers 0
scalar FogNoLB.fog[75].dispatcher droppedJobsSLA 0
scalar FogNoLB.fog[75].dispatcher jobs_class_1 130208
scalar FogNoLB.fog[75].dispatcher localJobs_class_1 130208
scalar FogNoLB.fog[75].server[0] rho 0.20135200023651
scalar FogNoLB.fog[75].server[0] congestionRatio 0
scalar FogNoLB.fog[75].server[0] totalJobs 130208
scalar FogNoLB.fog[75].server[0] droppedJobsQueue 1
scalar FogNoLB.fog[75].server[0] droppedJobsTimout 0
scalar FogNoLB.fog[75].server[0] droppedJobsSLA 0
scalar FogNoLB.fog[75].server[0] droppedJobsTotal 1
scalar FogNoLB.fog[76].dispatcher localJobs 129221
scalar FogNoLB.fog[76].dispatcher remoteJobs 0
scalar FogNoLB.fog[76].dispatcher probeQueries 0
scalar FogNoLB.fog[76].dispatcher probeAnswers 0
scalar FogNoLB.fog[76].dispatcher droppedJobsSLA 0
scalar FogNoLB.fog[76].dispatcher jobs_class_1 129221
scalar FogNoLB.fog[76].dispatcher localJobs_class_1 129221
scalar FogNoLB.fog[76].server[0] rho 0.19979958236217
scalar FogNoLB.fog[76].server[0] congestionRatio 0
scalar FogNoLB.fog[76].server[0] totalJobs 129221
scalar FogNoLB.fog[76].server[0] droppedJobsQueue 0
scalar FogNoLB.fog[76].server[0] droppedJobsTimout 0
scalar FogNoLB.fog[76].server[0] droppedJobsSLA 0
scalar FogNoLB.fog[76].server[0] droppedJobsTotal 0
scalar FogNoLB.fog[77].dispatcher localJobs 129841
scalar FogNoLB.fog[77].dispatcher remoteJobs 0
scalar FogNoLB.fog[77].dispatcher probeQueries 0
scalar FogNoLB.fog[77].dispatcher probeAnswers 0
scalar FogNoLB.fog[77].dispatcher droppedJobsSLA 0
scalar FogNoLB.fog[77].dispatcher jobs_class_1 129841
scalar FogNoLB.fog[77].dispatcher localJobs_class_1 129841
scalar FogNoLB.fog[77].server[0] rho 0.20076966285706
scalar FogNoLB.fog[77].server[0] congestionRatio 0
scalar FogNoLB.fog[77].server[0] totalJobs 129841
scalar FogNoLB.fog[77].server[0] droppedJobsQueue 2
scalar FogNoLB.fog[77].server[0] droppedJobsTimout 0
scalar FogNoLB.fog[77].server[0] droppedJobsSLA 0
scalar FogNoLB.fog[77].server[0] droppedJobsTotal 2
scalar FogNoLB.fog[78].dispatcher localJobs 129729
scalar FogNoLB.fog[78].dispatcher remoteJobs 0
scalar FogNoLB.fog[78].dispatcher probeQueries 0
scalar FogNoLB.fog[78].dispatcher probeAnswers 0
scalar FogNoLB.fog[78].dispatcher droppedJobsSLA 0
scalar FogNoLB.fog[78].dispatcher jobs_class_1 129729
scalar FogNoLB.fog[78].dispatcher localJobs_class_1 129729
scalar FogNoLB.fog[78].server[0] rho 0.20059803128242
scalar FogNoLB.fog[78].server[0] congestionRatio 0
scalar FogNoLB.fog[78].server[0] totalJobs 129729
scalar FogNoLB.fog[78].server[0] droppedJobsQueue 0
scalar FogNoLB.fog[78].server[0] droppedJobsTimout 0
scalar FogNoLB.fog[78].server[0] droppedJobsSLA 0
scalar FogNoLB.fog[78].server[0] droppedJobsTotal 0
scalar FogNoLB.fog[79].dispatcher localJobs 129728
scalar FogNoLB.fog[79].dispatcher remoteJobs 0
scalar FogNoLB.fog[79].dispatcher probeQueries 0
scalar FogNoLB.fog[79].dispatcher probeAnswers 0
scalar FogNoLB.fog[79].dispatcher droppedJobsSLA 0
scalar FogNoLB.fog[79].dispatcher jobs_class_1 129728
scalar FogNoLB.fog[79].dispatcher localJobs_class_1 129728
scalar FogNoLB.fog[79].server[0] rho 0.20058679580688
scalar FogNoLB.fog[79].server[0] congestionRatio 0
scalar FogNoLB.fog[79].server[0] totalJobs 129728
scalar FogNoLB.fog[79].server[0] droppedJobsQueue 2
scalar FogNoLB.fog[79].server[0] droppedJobsTimout 0
scalar FogNoLB.fog[79].server[0] droppedJobsSLA 0
scalar FogNoLB.fog[79].server[0] droppedJobsTotal 2
scalar FogNoLB.fog[80].dispatcher localJobs 129590
scalar FogNoLB.fog[80].dispatcher remoteJobs 0
scalar FogNoLB.fog[80].dispatcher probeQueries 0
scalar FogNoLB.fog[80].dispatcher probeAnswers 0
scalar FogNoLB.fog[80].dispatcher droppedJobsSLA 0
scalar FogNoLB.fog[80].dispatcher jobs_class_1 129590
scalar FogNoLB.fog[80].dispatcher localJobs_class_1 129590
scalar FogNoLB.fog[80].server[0] rho 0.20038767158985
scalar FogNoLB.fog[80].server[0] congestionRatio 0
scalar FogNoLB.fog[80].server[0] totalJobs 129590
scalar FogNoLB.fog[80].server[0] droppedJobsQueue 0
scalar FogNoLB.fog[80].server[0] droppedJobsTimout 0
scalar FogNoLB.fog[80].server[0] droppedJobsSLA 0
scalar FogNoLB.fog[80].server[0] droppedJobsTotal 0
scalar FogNoLB.fog[81].dispatcher localJobs 129238
scalar FogNoLB.fog[81].dispatcher remoteJobs 0
scalar FogNoLB.fog[81].dispatcher probeQueries 0
scalar FogNoLB.fog[81].dispatcher probeAnswers 0
scalar FogNoLB.fog[81].dispatcher droppedJobsSLA 0
scalar FogNoLB.fog[81].dispatcher jobs_class_1 129238
scalar FogNoLB.fog[81].dispatcher localJobs_class_1 129238
scalar FogNoLB.fog[81].server[0] rho 0.19982580840588
scalar FogNoLB.fog[81].server[0] congestionRatio 0
scalar FogNoLB.fog[81].server[0] totalJobs 129238
scalar FogNoLB.fog[81].server[0] droppedJobsQueue 0
scalar FogNoLB.fog[81].server[0] droppedJobsTimout 0
scalar FogNoLB.fog[81].server[0] droppedJobsSLA 0
scalar FogNoLB.fog[81].server[0] droppedJobsTotal 0
scalar FogNoLB.fog[82].dispatcher localJobs 129236
scalar FogNoLB.fog[82].dispatcher remoteJobs 0
scalar FogNoLB.fog[82].dispatcher probeQueries 0
scalar FogNoLB.fog[82].dispatcher probeAnswers 0
scalar FogNoLB.fog[82].dispatcher droppedJobsSLA 0
scalar FogNoLB.fog[82].dispatcher jobs_class_1 129236
scalar FogNoLB.fog[82].dispatcher localJobs_class_1 129236
scalar FogNoLB.fog[82].server[0] rho 0.1998360902071
scalar FogNoLB.fog[82].server[0] congestionRatio 0
scalar FogNoLB.fog[82].server[0] totalJobs 129236
scalar FogNoLB.fog[82].server[0] droppedJobsQueue 0
scalar FogNoLB.fog[82].server[0] droppedJobsTimout 0
scalar FogNoLB.fog[82].server[0] droppedJobsSLA 0
scalar FogNoLB.fog[82].server[0] droppedJobsTotal 0
scalar FogNoLB.fog[83].dispatcher localJobs 129571
scalar FogNoLB.fog[83].dispatcher remoteJobs 0
scalar FogNoLB.fog[83].dispatcher probeQueries 0
scalar FogNoLB.fog[83].dispatcher probeAnswers 0
scalar FogNoLB.fog[83].dispatcher droppedJobsSLA 0
scalar FogNoLB.fog[83].dispatcher jobs_class_1 129571
scalar FogNoLB.fog[83].dispatcher localJobs_class_1 129571
scalar FogNoLB.fog[83].server[0] rho 0.20034044981003
scalar FogNoLB.fog[83].server[0] congestionRatio 0
scalar FogNoLB.fog[83].server[0] totalJobs 129571
scalar FogNoLB.fog[83].server[0] droppedJobsQueue 3
scalar FogNoLB.fog[83].server[0] droppedJobsTimout 0
scalar FogNoLB.fog[83].server[0] droppedJobsSLA 0
scalar FogNoLB.fog[83].server[0] droppedJobsTotal 3
scalar FogNoLB.fog[84].dispatcher localJobs 129883
scalar FogNoLB.fog[84].dispatcher remoteJobs 0
scalar FogNoLB.fog[84].dispatcher probeQueries 0
scalar FogNoLB.fog[84].dispatcher probeAnswers 0
scalar FogNoLB.fog[84].dispatcher droppedJobsSLA 0
scalar FogNoLB.fog[84].dispatcher jobs_class_1 129883
scalar FogNoLB.fog[84].dispatcher localJobs_class_1 129883
scalar FogNoLB.fog[84].server[0] rho 0.20086245238781
scalar FogNoLB.fog[84].server[0] congestionRatio 0
scalar FogNoLB.fog[84].server[0] totalJobs 129883
scalar FogNoLB.fog[84].server[0] droppedJobsQueue 1
scalar FogNoLB.fog[84].server[0] droppedJobsTimout 0
scalar FogNoLB.fog[84].server[0] droppedJobsSLA 0
scalar FogNoLB.fog[84].server[0] droppedJobsTotal 1
scalar FogNoLB.fog[85].dispatcher localJobs 129394
scalar FogNoLB.fog[85].dispatcher remoteJobs 0
scalar FogNoLB.fog[85].dispatcher probeQueries 0
scalar FogNoLB.fog[85].dispatcher probeAnswers 0
scalar FogNoLB.fog[85].dispatcher droppedJobsSLA 0
scalar FogNoLB.fog[85].dispatcher jobs_class_1 129394
scalar FogNoLB.fog[85].dispatcher localJobs_class_1 129394
scalar FogNoLB.fog[85].server[0] rho 0.20010377466679
scalar FogNoLB.fog[85].server[0] congestionRatio 0
scalar FogNoLB.fog[85].server[0] totalJobs 129394
scalar FogNoLB.fog[85].server[0] droppedJobsQueue 1
scalar FogNoLB.fog[85].server[0] droppedJobsTimout 0
scalar FogNoLB.fog[85].server[0] droppedJobsSLA 0
scalar FogNoLB.fog[85].server[0] droppedJobsTotal 1
scalar FogNoLB.fog[86].dispatcher localJobs 129030
scalar FogNoLB.fog[86].dispatcher remoteJobs 0
scalar FogNoLB.fog[86].dispatcher probeQueries 0
scalar FogNoLB.fog[86].dispatcher probeAnswers 0
scalar FogNoLB.fog[86].dispatcher droppedJobsSLA 0
scalar FogNoLB.fog[86].dispatcher jobs_class_1 129030
scalar FogNoLB.fog[86].dispatcher localJobs_class_1 129030
scalar FogNoLB.fog[86].server[0] rho 0.19952546060085
scalar FogNoLB.fog[86].server[0] congestionRatio 0
scalar FogNoLB.fog[86].server[0] totalJobs 129030
scalar FogNoLB.fog[86].server[0] droppedJobsQueue 0
scalar FogNoLB.fog[86].server[0] droppedJobsTimout 0
scalar FogNoLB.fog[86].server[0] droppedJobsSLA 0
scalar FogNoLB.fog[86].server[0] droppedJobsTotal 0
scalar FogNoLB.fog[87].dispatcher localJobs 129552
scalar FogNoLB.fog[87].dispatcher remoteJobs 0
scalar FogNoLB.fog[87].dispatcher probeQueries 0
scalar FogNoLB.fog[87].dispatcher probeAnswers 0
scalar FogNoLB.fog[87].dispatcher droppedJobsSLA 0
scalar FogNoLB.fog[87].dispatcher jobs_class_1 129552
scalar FogNoLB.fog[87].dispatcher localJobs_class_1 129552
scalar FogNoLB.fog[87].server[0] rho 0.20033405721188
scalar FogNoLB.fog[87].server[0] congestionRatio 0
scalar FogNoLB.fog[87].server[0] totalJobs 129552
scalar FogNoLB.fog[87].server[0] droppedJobsQueue 1
scalar FogNoLB.fog[87].server[0] droppedJobsTimout 0
scalar FogNoLB.fog[87].server[0] droppedJobsSLA 0
scalar FogNoLB.fog[87].server[0] droppedJobsTotal 1
scalar FogNoLB.fog[88].dispatcher localJobs 129072
scalar FogNoLB.fog[88].dispatcher remoteJobs 0
scalar FogNoLB.fog[88].dispatcher probeQueries 0
scalar FogNoLB.fog[88].dispatcher probeAnswers 0
scalar FogNoLB.fog[88].dispatcher droppedJobsSLA 0
scalar FogNoLB.fog[88].dispatcher jobs_class_1 129072
scalar FogNoLB.fog[88].dispatcher localJobs_class_1 129072
scalar FogNoLB.fog[88].server[0] rho 0.19957223534584
scalar FogNoLB.fog[88].server[0] congestionRatio 0
scalar FogNoLB.fog[88].server[0] totalJobs 129072
scalar FogNoLB.fog[88].server[0] droppedJobsQueue 1
scalar FogNoLB.fog[88].server[0] droppedJobsTimout 0
scalar FogNoLB.fog[88].server[0] droppedJobsSLA 0
scalar FogNoLB.fog[88].server[0] droppedJobsTotal 1
scalar FogNoLB.fog[89].dispatcher localJobs 129618
scalar FogNoLB.fog[89].dispatcher remoteJobs 0
scalar FogNoLB.fog[89].dispatcher probeQueries 0
scalar FogNoLB.fog[89].dispatcher probeAnswers 0
scalar FogNoLB.fog[89].dispatcher droppedJobsSLA 0
scalar FogNoLB.fog[89].dispatcher jobs_class_1 129618
scalar FogNoLB.fog[89].dispatcher localJobs_class_1 129618
scalar FogNoLB.fog[89].server[0] rho 0.20043121278286
scalar FogNoLB.fog[89].server[0] congestionRatio 0
scalar FogNoLB.fog[89].server[0] totalJobs 129618
scalar FogNoLB.fog[89].server[0] droppedJobsQueue 0
scalar FogNoLB.fog[89].server[0] droppedJobsTimout 0
scalar FogNoLB.fog[89].server[0] droppedJobsSLA 0
scalar FogNoLB.fog[89].server[0] droppedJobsTotal 0
scalar FogNoLB.fog[90].dispatcher localJobs 129110
scalar FogNoLB.fog[90].dispatcher remoteJobs 0
scalar FogNoLB.fog[90].dispatcher probeQueries 0
scalar FogNoLB.fog[90].dispatcher probeAnswers 0
scalar FogNoLB.fog[90].dispatcher droppedJobsSLA 0
scalar FogNoLB.fog[90].dispatcher jobs_class_1 129110
scalar FogNoLB.fog[90].dispatcher localJobs_class_1 129110
scalar FogNoLB.fog[90].server[0] rho 0.19964933395386
scalar FogNoLB.fog[90].server[0] congestionRatio 0
scalar FogNoLB.fog[90].server[0] totalJobs 129110
scalar FogNoLB.fog[90].server[0] droppedJobsQueue 2
scalar FogNoLB.fog[90].server[0] droppedJobsTimout 0
scalar FogNoLB.fog[90].server[0] droppedJobsSLA 0
scalar FogNoLB.fog[90].server[0] droppedJobsTotal 2
scalar FogNoLB.fog[91].dispatcher localJobs 129695
scalar FogNoLB.fog[91].dispatcher remoteJobs 0
scalar FogNoLB.fog[91].dispatcher probeQueries 0
scalar FogNoLB.fog[91].dispatcher probeAnswers 0
scalar FogNoLB.fog[91].dispatcher droppedJobsSLA 0
scalar FogNoLB.fog[91].dispatcher jobs_class_1 129695
scalar FogNoLB.fog[91].dispatcher localJobs_class_1 129695
scalar FogNoLB.fog[91].server[0] rho 0.20054732263088
scalar FogNoLB.fog[91].server[0] congestionRatio 0
scalar FogNoLB.fog[91].server[0] totalJobs 129695
scalar FogNoLB.fog[91].server[0] droppedJobsQueue 2
scalar FogNoLB.fog[91].server[0] droppedJobsTimout 0
scalar FogNoLB.fog[91].server[0] droppedJobsSLA 0
scalar FogNoLB.fog[91].server[0] droppedJobsTotal 2
scalar FogNoLB.fog[92].dispatcher localJobs 129344
scalar FogNoLB.fog[92].dispatcher remoteJobs 0
scalar FogNoLB.fog[92].dispatcher probeQueries 0
scalar FogNoLB.fog[92].dispatcher probeAnswers 0
scalar FogNoLB.fog[92].dispatcher droppedJobsSLA 0
scalar FogNoLB.fog[92].dispatcher jobs_class_1 129344
scalar FogNoLB.fog[92].dispatcher localJobs_class_1 129344
scalar FogNoLB.fog[92].server[0] rho 0.20001313090324
scalar FogNoLB.fog[92].server[0] congestionRatio 0
scalar FogNoLB.fog[92].server[0] totalJobs 129344
scalar FogNoLB.fog[92].server[0] droppedJobsQueue 2
scalar FogNoLB.fog[92].server[0] droppedJobsTimout 0
scalar FogNoLB.fog[92].server[0] droppedJobsSLA 0
scalar FogNoLB.fog[92].server[0] droppedJobsTotal 2
scalar FogNoLB.fog[93].dispatcher localJobs 129254
scalar FogNoLB.fog[93].dispatcher remoteJobs 0
scalar FogNoLB.fog[93].dispatcher probeQueries 0
scalar FogNoLB.fog[93].dispatcher probeAnswers 0
scalar FogNoLB.fog[93].dispatcher droppedJobsSLA 0
scalar FogNoLB.fog[93].dispatcher jobs_class_1 129254
scalar FogNoLB.fog[93].dispatcher localJobs_class_1 129254
scalar FogNoLB.fog[93].server[0] rho 0.19986246526241
scalar FogNoLB.fog[93].server[0] congestionRatio 0
scalar FogNoLB.fog[93].server[0] totalJobs 129254
scalar FogNoLB.fog[93].server[0] droppedJobsQueue 3
scalar FogNoLB.fog[93].server[0] droppedJobsTimout 0
scalar FogNoLB.fog[93].server[0] droppedJobsSLA 0
scalar FogNoLB.fog[93].server[0] droppedJobsTotal 3
scalar FogNoLB.fog[94].dispatcher localJobs 128910
scalar FogNoLB.fog[94].dispatcher remoteJobs 0
scalar FogNoLB.fog[94].dispatcher probeQueries 0
scalar FogNoLB.fog[94].dispatcher probeAnswers 0
scalar FogNoLB.fog[94].dispatcher droppedJobsSLA 0
scalar FogNoLB.fog[94].dispatcher jobs_class_1 128910
scalar FogNoLB.fog[94].dispatcher localJobs_class_1 128910
scalar FogNoLB.fog[94].server[0] rho 0.19935961067677
scalar FogNoLB.fog[94].server[0] congestionRatio 0
scalar FogNoLB.fog[94].server[0] totalJobs 128910
scalar FogNoLB.fog[94].server[0] droppedJobsQueue 2
scalar FogNoLB.fog[94].server[0] droppedJobsTimout 0
scalar FogNoLB.fog[94].server[0] droppedJobsSLA 0
scalar FogNoLB.fog[94].server[0] droppedJobsTotal 2
scalar FogNoLB.fog[95].dispatcher localJobs 129075
scalar FogNoLB.fog[95].dispatcher remoteJobs 0
scalar FogNoLB.fog[95].dispatcher probeQueries 0
scalar FogNoLB.fog[95].dispatcher probeAnswers 0
scalar FogNoLB.fog[95].dispatcher droppedJobsSLA 0
scalar FogNoLB.fog[95].dispatcher jobs_class_1 129075
scalar FogNoLB.fog[95].dispatcher localJobs_class_1 129075
scalar FogNoLB.fog[95].server[0] rho 0.19959354400635
scalar FogNoLB.fog[95].server[0] congestionRatio 0
scalar FogNoLB.fog[95].server[0] totalJobs 129075
scalar FogNoLB.fog[95].server[0] droppedJobsQueue 1
scalar FogNoLB.fog[95].server[0] droppedJobsTimout 0
scalar FogNoLB.fog[95].server[0] droppedJobsSLA 0
scalar FogNoLB.fog[95].server[0] droppedJobsTotal 1
scalar FogNoLB.fog[96].dispatcher localJobs 129047
scalar FogNoLB.fog[96].dispatcher remoteJobs 0
scalar FogNoLB.fog[96].dispatcher probeQueries 0
scalar FogNoLB.fog[96].dispatcher probeAnswers 0
scalar FogNoLB.fog[96].dispatcher droppedJobsSLA 0
scalar FogNoLB.fog[96].dispatcher jobs_class_1 129047
scalar FogNoLB.fog[96].dispatcher localJobs_class_1 129047
scalar FogNoLB.fog[96].server[0] rho 0.19953624904156
scalar FogNoLB.fog[96].server[0] congestionRatio 0
scalar FogNoLB.fog[96].server[0] totalJobs 129047
scalar FogNoLB.fog[96].server[0] droppedJobsQueue 0
scalar FogNoLB.fog[96].server[0] droppedJobsTimout 0
scalar FogNoLB.fog[96].server[0] droppedJobsSLA 0
scalar FogNoLB.fog[96].server[0] droppedJobsTotal 0
scalar FogNoLB.fog[97].dispatcher localJobs 129956
scalar FogNoLB.fog[97].dispatcher remoteJobs 0
scalar FogNoLB.fog[97].dispatcher probeQueries 0
scalar FogNoLB.fog[97].dispatcher probeAnswers 0
scalar FogNoLB.fog[97].dispatcher droppedJobsSLA 0
scalar FogNoLB.fog[97].dispatcher jobs_class_1 129956
scalar FogNoLB.fog[97].dispatcher localJobs_class_1 129956
scalar FogNoLB.fog[97].server[0] rho 0.20096011459827
scalar FogNoLB.fog[97].server[0] congestionRatio 0
scalar FogNoLB.fog[97].server[0] totalJobs 129956
scalar FogNoLB.fog[97].server[0] droppedJobsQueue 1
scalar FogNoLB.fog[97].server[0] droppedJobsTimout 0
scalar FogNoLB.fog[97].server[0] droppedJobsSLA 0
scalar FogNoLB.fog[97].server[0] droppedJobsTotal 1
scalar FogNoLB.fog[98].dispatcher localJobs 128938
scalar FogNoLB.fog[98].dispatcher remoteJobs 0
scalar FogNoLB.fog[98].dispatcher probeQueries 0
scalar FogNoLB.fog[98].dispatcher probeAnswers 0
scalar FogNoLB.fog[98].dispatcher droppedJobsSLA 0
scalar FogNoLB.fog[98].dispatcher jobs_class_1 128938
scalar FogNoLB.fog[98].dispatcher localJobs_class_1 128938
scalar FogNoLB.fog[98].server[0] rho 0.19937346875668
scalar FogNoLB.fog[98].server[0] congestionRatio 0
scalar FogNoLB.fog[98].server[0] totalJobs 128938
scalar FogNoLB.fog[98].server[0] droppedJobsQueue 3
scalar FogNoLB.fog[98].server[0] droppedJobsTimout 0
scalar FogNoLB.fog[98].server[0] droppedJobsSLA 0
scalar FogNoLB.fog[98].server[0] droppedJobsTotal 3
scalar FogNoLB.fog[99].dispatcher localJobs 129126
scalar FogNoLB.fog[99].dispatcher remoteJobs 0
scalar FogNoLB.fog[99].dispatcher probeQueries 0
scalar FogNoLB.fog[99].dispatcher probeAnswers 0
scalar FogNoLB.fog[99].dispatcher droppedJobsSLA 0
scalar FogNoLB.fog[99].dispatcher jobs_class_1 129126
scalar FogNoLB.fog[99].dispatcher localJobs_class_1 129126
scalar FogNoLB.fog[99].server[0] rho 0.19966925680637
scalar FogNoLB.fog[99].server[0] congestionRatio 0
scalar FogNoLB.fog[99].server[0] totalJobs 129126
scalar FogNoLB.fog[99].server[0] droppedJobsQueue 1
scalar FogNoLB.fog[99].server[0] droppedJobsTimout 0
scalar FogNoLB.fog[99].server[0] droppedJobsSLA 0
scalar FogNoLB.fog[99].server[0] droppedJobsTotal 1
scalar FogNoLB.sink avg_responseTime_1 0.018783913418155
scalar FogNoLB.sink p90_responseTime_1 0.014893693473
scalar FogNoLB.sink med_responseTime_1 0.014893693473
scalar FogNoLB.sink avg_delayTime_1 0
scalar FogNoLB.sink p90_delayTime_1 0
scalar FogNoLB.sink med_delayTime_1 0
scalar FogNoLB.sink avg_queuingTime_1 0.0020839270625353
scalar FogNoLB.sink p90_queuingTime_1 0
scalar FogNoLB.sink med_queuingTime_1 0
scalar FogNoLB.sink avg_serviceTime_1 0.016699986355617
scalar FogNoLB.sink p90_serviceTime_1 0.014844591839
scalar FogNoLB.sink med_serviceTime_1 0.014844591839
scalar FogNoLB.sink avg_balancerTime_1 0
scalar FogNoLB.sink p90_balancerTime_1 0
scalar FogNoLB.sink med_balancerTime_1 0
scalar FogNoLB.sink avg_balancerCount_1 1
scalar FogNoLB.sink p90_balancerCount_1 1
scalar FogNoLB.sink med_balancerCount_1 1

