version 2
run Fog-mul_001-rho_08-thr_5-3-20190711-18:52:01-51430
attr configname Fog-mul_001-rho_08-thr_5
attr datetime 20190711-18:52:01
attr experiment Fog-mul_001-rho_08-thr_5
attr inifile FogQueueLen.ini
attr iterationvars ""
attr iterationvarsf ""
attr measurement ""
attr network FogNoLB
attr processid 51430
attr repetition 3
attr replication #3
attr resultdir results
attr runnumber 3
attr seedset 3
param FogNoLB.proctimeMul 0.01
param FogNoLB.rho 0.8
param FogNoLB.fog[*].server[*].capacity 5
param FogNoLB.nSources 100
param FogNoLB.rho 0.9
param FogNoLB.proctimeMul 1.0
param FogNoLB.source[*].appId 1
param FogNoLB.fog[*].nServers 1
param FogNoLB.fog[*].dispatcher.fanOut 1
param FogNoLB.fog[*].server[*].timeSlice -1s
param FogNoLB.fog[*].server[*].capacity 5
param FogNoLB.fog[*].server[*].fifo true
param FogNoLB.fog[*].server[*].maxServiceTime -1s

scalar FogNoLB.fog[0].dispatcher localJobs 517790
scalar FogNoLB.fog[0].dispatcher remoteJobs 0
scalar FogNoLB.fog[0].dispatcher probeQueries 0
scalar FogNoLB.fog[0].dispatcher probeAnswers 0
scalar FogNoLB.fog[0].dispatcher droppedJobsSLA 0
scalar FogNoLB.fog[0].dispatcher jobs_class_1 517790
scalar FogNoLB.fog[0].dispatcher localJobs_class_1 517790
scalar FogNoLB.fog[0].server[0] rho 0.78337502479553
scalar FogNoLB.fog[0].server[0] congestionRatio 0
scalar FogNoLB.fog[0].server[0] totalJobs 517790
scalar FogNoLB.fog[0].server[0] droppedJobsQueue 11183
scalar FogNoLB.fog[0].server[0] droppedJobsTimout 0
scalar FogNoLB.fog[0].server[0] droppedJobsSLA 0
scalar FogNoLB.fog[0].server[0] droppedJobsTotal 11183
scalar FogNoLB.fog[1].dispatcher localJobs 517934
scalar FogNoLB.fog[1].dispatcher remoteJobs 0
scalar FogNoLB.fog[1].dispatcher probeQueries 0
scalar FogNoLB.fog[1].dispatcher probeAnswers 0
scalar FogNoLB.fog[1].dispatcher droppedJobsSLA 0
scalar FogNoLB.fog[1].dispatcher jobs_class_1 517934
scalar FogNoLB.fog[1].dispatcher localJobs_class_1 517934
scalar FogNoLB.fog[1].server[0] rho 0.78350406885147
scalar FogNoLB.fog[1].server[0] congestionRatio 0
scalar FogNoLB.fog[1].server[0] totalJobs 517934
scalar FogNoLB.fog[1].server[0] droppedJobsQueue 11245
scalar FogNoLB.fog[1].server[0] droppedJobsTimout 0
scalar FogNoLB.fog[1].server[0] droppedJobsSLA 0
scalar FogNoLB.fog[1].server[0] droppedJobsTotal 11245
scalar FogNoLB.fog[2].dispatcher localJobs 517549
scalar FogNoLB.fog[2].dispatcher remoteJobs 0
scalar FogNoLB.fog[2].dispatcher probeQueries 0
scalar FogNoLB.fog[2].dispatcher probeAnswers 0
scalar FogNoLB.fog[2].dispatcher droppedJobsSLA 0
scalar FogNoLB.fog[2].dispatcher jobs_class_1 517549
scalar FogNoLB.fog[2].dispatcher localJobs_class_1 517549
scalar FogNoLB.fog[2].server[0] rho 0.78254103660583
scalar FogNoLB.fog[2].server[0] congestionRatio 0
scalar FogNoLB.fog[2].server[0] totalJobs 517549
scalar FogNoLB.fog[2].server[0] droppedJobsQueue 11496
scalar FogNoLB.fog[2].server[0] droppedJobsTimout 0
scalar FogNoLB.fog[2].server[0] droppedJobsSLA 0
scalar FogNoLB.fog[2].server[0] droppedJobsTotal 11496
scalar FogNoLB.fog[3].dispatcher localJobs 518135
scalar FogNoLB.fog[3].dispatcher remoteJobs 0
scalar FogNoLB.fog[3].dispatcher probeQueries 0
scalar FogNoLB.fog[3].dispatcher probeAnswers 0
scalar FogNoLB.fog[3].dispatcher droppedJobsSLA 0
scalar FogNoLB.fog[3].dispatcher jobs_class_1 518135
scalar FogNoLB.fog[3].dispatcher localJobs_class_1 518135
scalar FogNoLB.fog[3].server[0] rho 0.78344798088074
scalar FogNoLB.fog[3].server[0] congestionRatio 0
scalar FogNoLB.fog[3].server[0] totalJobs 518135
scalar FogNoLB.fog[3].server[0] droppedJobsQueue 11457
scalar FogNoLB.fog[3].server[0] droppedJobsTimout 0
scalar FogNoLB.fog[3].server[0] droppedJobsSLA 0
scalar FogNoLB.fog[3].server[0] droppedJobsTotal 11457
scalar FogNoLB.fog[4].dispatcher localJobs 517747
scalar FogNoLB.fog[4].dispatcher remoteJobs 0
scalar FogNoLB.fog[4].dispatcher probeQueries 0
scalar FogNoLB.fog[4].dispatcher probeAnswers 0
scalar FogNoLB.fog[4].dispatcher droppedJobsSLA 0
scalar FogNoLB.fog[4].dispatcher jobs_class_1 517747
scalar FogNoLB.fog[4].dispatcher localJobs_class_1 517747
scalar FogNoLB.fog[4].server[0] rho 0.78296667337418
scalar FogNoLB.fog[4].server[0] congestionRatio 0
scalar FogNoLB.fog[4].server[0] totalJobs 517747
scalar FogNoLB.fog[4].server[0] droppedJobsQueue 11388
scalar FogNoLB.fog[4].server[0] droppedJobsTimout 0
scalar FogNoLB.fog[4].server[0] droppedJobsSLA 0
scalar FogNoLB.fog[4].server[0] droppedJobsTotal 11388
scalar FogNoLB.fog[5].dispatcher localJobs 517426
scalar FogNoLB.fog[5].dispatcher remoteJobs 0
scalar FogNoLB.fog[5].dispatcher probeQueries 0
scalar FogNoLB.fog[5].dispatcher probeAnswers 0
scalar FogNoLB.fog[5].dispatcher droppedJobsSLA 0
scalar FogNoLB.fog[5].dispatcher jobs_class_1 517426
scalar FogNoLB.fog[5].dispatcher localJobs_class_1 517426
scalar FogNoLB.fog[5].server[0] rho 0.7830930352211
scalar FogNoLB.fog[5].server[0] congestionRatio 0
scalar FogNoLB.fog[5].server[0] totalJobs 517426
scalar FogNoLB.fog[5].server[0] droppedJobsQueue 10994
scalar FogNoLB.fog[5].server[0] droppedJobsTimout 0
scalar FogNoLB.fog[5].server[0] droppedJobsSLA 0
scalar FogNoLB.fog[5].server[0] droppedJobsTotal 10994
scalar FogNoLB.fog[6].dispatcher localJobs 516691
scalar FogNoLB.fog[6].dispatcher remoteJobs 0
scalar FogNoLB.fog[6].dispatcher probeQueries 0
scalar FogNoLB.fog[6].dispatcher probeAnswers 0
scalar FogNoLB.fog[6].dispatcher droppedJobsSLA 0
scalar FogNoLB.fog[6].dispatcher jobs_class_1 516691
scalar FogNoLB.fog[6].dispatcher localJobs_class_1 516691
scalar FogNoLB.fog[6].server[0] rho 0.78117138147354
scalar FogNoLB.fog[6].server[0] congestionRatio 0
scalar FogNoLB.fog[6].server[0] totalJobs 516691
scalar FogNoLB.fog[6].server[0] droppedJobsQueue 11498
scalar FogNoLB.fog[6].server[0] droppedJobsTimout 0
scalar FogNoLB.fog[6].server[0] droppedJobsSLA 0
scalar FogNoLB.fog[6].server[0] droppedJobsTotal 11498
scalar FogNoLB.fog[7].dispatcher localJobs 516542
scalar FogNoLB.fog[7].dispatcher remoteJobs 0
scalar FogNoLB.fog[7].dispatcher probeQueries 0
scalar FogNoLB.fog[7].dispatcher probeAnswers 0
scalar FogNoLB.fog[7].dispatcher droppedJobsSLA 0
scalar FogNoLB.fog[7].dispatcher jobs_class_1 516542
scalar FogNoLB.fog[7].dispatcher localJobs_class_1 516542
scalar FogNoLB.fog[7].server[0] rho 0.78167849779129
scalar FogNoLB.fog[7].server[0] congestionRatio 0
scalar FogNoLB.fog[7].server[0] totalJobs 516542
scalar FogNoLB.fog[7].server[0] droppedJobsQueue 11030
scalar FogNoLB.fog[7].server[0] droppedJobsTimout 0
scalar FogNoLB.fog[7].server[0] droppedJobsSLA 0
scalar FogNoLB.fog[7].server[0] droppedJobsTotal 11030
scalar FogNoLB.fog[8].dispatcher localJobs 517405
scalar FogNoLB.fog[8].dispatcher remoteJobs 0
scalar FogNoLB.fog[8].dispatcher probeQueries 0
scalar FogNoLB.fog[8].dispatcher probeAnswers 0
scalar FogNoLB.fog[8].dispatcher droppedJobsSLA 0
scalar FogNoLB.fog[8].dispatcher jobs_class_1 517405
scalar FogNoLB.fog[8].dispatcher localJobs_class_1 517405
scalar FogNoLB.fog[8].server[0] rho 0.78268480300903
scalar FogNoLB.fog[8].server[0] congestionRatio 0
scalar FogNoLB.fog[8].server[0] totalJobs 517405
scalar FogNoLB.fog[8].server[0] droppedJobsQueue 11233
scalar FogNoLB.fog[8].server[0] droppedJobsTimout 0
scalar FogNoLB.fog[8].server[0] droppedJobsSLA 0
scalar FogNoLB.fog[8].server[0] droppedJobsTotal 11233
scalar FogNoLB.fog[9].dispatcher localJobs 517032
scalar FogNoLB.fog[9].dispatcher remoteJobs 0
scalar FogNoLB.fog[9].dispatcher probeQueries 0
scalar FogNoLB.fog[9].dispatcher probeAnswers 0
scalar FogNoLB.fog[9].dispatcher droppedJobsSLA 0
scalar FogNoLB.fog[9].dispatcher jobs_class_1 517032
scalar FogNoLB.fog[9].dispatcher localJobs_class_1 517032
scalar FogNoLB.fog[9].server[0] rho 0.78146457672119
scalar FogNoLB.fog[9].server[0] congestionRatio 0
scalar FogNoLB.fog[9].server[0] totalJobs 517032
scalar FogNoLB.fog[9].server[0] droppedJobsQueue 11648
scalar FogNoLB.fog[9].server[0] droppedJobsTimout 0
scalar FogNoLB.fog[9].server[0] droppedJobsSLA 0
scalar FogNoLB.fog[9].server[0] droppedJobsTotal 11648
scalar FogNoLB.fog[10].dispatcher localJobs 517747
scalar FogNoLB.fog[10].dispatcher remoteJobs 0
scalar FogNoLB.fog[10].dispatcher probeQueries 0
scalar FogNoLB.fog[10].dispatcher probeAnswers 0
scalar FogNoLB.fog[10].dispatcher droppedJobsSLA 0
scalar FogNoLB.fog[10].dispatcher jobs_class_1 517747
scalar FogNoLB.fog[10].dispatcher localJobs_class_1 517747
scalar FogNoLB.fog[10].server[0] rho 0.78312134742737
scalar FogNoLB.fog[10].server[0] congestionRatio 0
scalar FogNoLB.fog[10].server[0] totalJobs 517747
scalar FogNoLB.fog[10].server[0] droppedJobsQueue 11255
scalar FogNoLB.fog[10].server[0] droppedJobsTimout 0
scalar FogNoLB.fog[10].server[0] droppedJobsSLA 0
scalar FogNoLB.fog[10].server[0] droppedJobsTotal 11255
scalar FogNoLB.fog[11].dispatcher localJobs 517679
scalar FogNoLB.fog[11].dispatcher remoteJobs 0
scalar FogNoLB.fog[11].dispatcher probeQueries 0
scalar FogNoLB.fog[11].dispatcher probeAnswers 0
scalar FogNoLB.fog[11].dispatcher droppedJobsSLA 0
scalar FogNoLB.fog[11].dispatcher jobs_class_1 517679
scalar FogNoLB.fog[11].dispatcher localJobs_class_1 517679
scalar FogNoLB.fog[11].server[0] rho 0.78253638744354
scalar FogNoLB.fog[11].server[0] congestionRatio 0
scalar FogNoLB.fog[11].server[0] totalJobs 517679
scalar FogNoLB.fog[11].server[0] droppedJobsQueue 11614
scalar FogNoLB.fog[11].server[0] droppedJobsTimout 0
scalar FogNoLB.fog[11].server[0] droppedJobsSLA 0
scalar FogNoLB.fog[11].server[0] droppedJobsTotal 11614
scalar FogNoLB.fog[12].dispatcher localJobs 516665
scalar FogNoLB.fog[12].dispatcher remoteJobs 0
scalar FogNoLB.fog[12].dispatcher probeQueries 0
scalar FogNoLB.fog[12].dispatcher probeAnswers 0
scalar FogNoLB.fog[12].dispatcher droppedJobsSLA 0
scalar FogNoLB.fog[12].dispatcher jobs_class_1 516665
scalar FogNoLB.fog[12].dispatcher localJobs_class_1 516665
scalar FogNoLB.fog[12].server[0] rho 0.78171467781067
scalar FogNoLB.fog[12].server[0] congestionRatio 0
scalar FogNoLB.fog[12].server[0] totalJobs 516665
scalar FogNoLB.fog[12].server[0] droppedJobsQueue 11132
scalar FogNoLB.fog[12].server[0] droppedJobsTimout 0
scalar FogNoLB.fog[12].server[0] droppedJobsSLA 0
scalar FogNoLB.fog[12].server[0] droppedJobsTotal 11132
scalar FogNoLB.fog[13].dispatcher localJobs 516801
scalar FogNoLB.fog[13].dispatcher remoteJobs 0
scalar FogNoLB.fog[13].dispatcher probeQueries 0
scalar FogNoLB.fog[13].dispatcher probeAnswers 0
scalar FogNoLB.fog[13].dispatcher droppedJobsSLA 0
scalar FogNoLB.fog[13].dispatcher jobs_class_1 516801
scalar FogNoLB.fog[13].dispatcher localJobs_class_1 516801
scalar FogNoLB.fog[13].server[0] rho 0.78182375431061
scalar FogNoLB.fog[13].server[0] congestionRatio 0
scalar FogNoLB.fog[13].server[0] totalJobs 516801
scalar FogNoLB.fog[13].server[0] droppedJobsQueue 11188
scalar FogNoLB.fog[13].server[0] droppedJobsTimout 0
scalar FogNoLB.fog[13].server[0] droppedJobsSLA 0
scalar FogNoLB.fog[13].server[0] droppedJobsTotal 11188
scalar FogNoLB.fog[14].dispatcher localJobs 517747
scalar FogNoLB.fog[14].dispatcher remoteJobs 0
scalar FogNoLB.fog[14].dispatcher probeQueries 0
scalar FogNoLB.fog[14].dispatcher probeAnswers 0
scalar FogNoLB.fog[14].dispatcher droppedJobsSLA 0
scalar FogNoLB.fog[14].dispatcher jobs_class_1 517747
scalar FogNoLB.fog[14].dispatcher localJobs_class_1 517747
scalar FogNoLB.fog[14].server[0] rho 0.78291416168213
scalar FogNoLB.fog[14].server[0] congestionRatio 0
scalar FogNoLB.fog[14].server[0] totalJobs 517747
scalar FogNoLB.fog[14].server[0] droppedJobsQueue 11438
scalar FogNoLB.fog[14].server[0] droppedJobsTimout 0
scalar FogNoLB.fog[14].server[0] droppedJobsSLA 0
scalar FogNoLB.fog[14].server[0] droppedJobsTotal 11438
scalar FogNoLB.fog[15].dispatcher localJobs 516988
scalar FogNoLB.fog[15].dispatcher remoteJobs 0
scalar FogNoLB.fog[15].dispatcher probeQueries 0
scalar FogNoLB.fog[15].dispatcher probeAnswers 0
scalar FogNoLB.fog[15].dispatcher droppedJobsSLA 0
scalar FogNoLB.fog[15].dispatcher jobs_class_1 516988
scalar FogNoLB.fog[15].dispatcher localJobs_class_1 516988
scalar FogNoLB.fog[15].server[0] rho 0.78164994716644
scalar FogNoLB.fog[15].server[0] congestionRatio 0
scalar FogNoLB.fog[15].server[0] totalJobs 516988
scalar FogNoLB.fog[15].server[0] droppedJobsQueue 11473
scalar FogNoLB.fog[15].server[0] droppedJobsTimout 0
scalar FogNoLB.fog[15].server[0] droppedJobsSLA 0
scalar FogNoLB.fog[15].server[0] droppedJobsTotal 11473
scalar FogNoLB.fog[16].dispatcher localJobs 516912
scalar FogNoLB.fog[16].dispatcher remoteJobs 0
scalar FogNoLB.fog[16].dispatcher probeQueries 0
scalar FogNoLB.fog[16].dispatcher probeAnswers 0
scalar FogNoLB.fog[16].dispatcher droppedJobsSLA 0
scalar FogNoLB.fog[16].dispatcher jobs_class_1 516912
scalar FogNoLB.fog[16].dispatcher localJobs_class_1 516912
scalar FogNoLB.fog[16].server[0] rho 0.78224259614944
scalar FogNoLB.fog[16].server[0] congestionRatio 0
scalar FogNoLB.fog[16].server[0] totalJobs 516912
scalar FogNoLB.fog[16].server[0] droppedJobsQueue 11038
scalar FogNoLB.fog[16].server[0] droppedJobsTimout 0
scalar FogNoLB.fog[16].server[0] droppedJobsSLA 0
scalar FogNoLB.fog[16].server[0] droppedJobsTotal 11038
scalar FogNoLB.fog[17].dispatcher localJobs 517757
scalar FogNoLB.fog[17].dispatcher remoteJobs 0
scalar FogNoLB.fog[17].dispatcher probeQueries 0
scalar FogNoLB.fog[17].dispatcher probeAnswers 0
scalar FogNoLB.fog[17].dispatcher droppedJobsSLA 0
scalar FogNoLB.fog[17].dispatcher jobs_class_1 517757
scalar FogNoLB.fog[17].dispatcher localJobs_class_1 517757
scalar FogNoLB.fog[17].server[0] rho 0.78335529565811
scalar FogNoLB.fog[17].server[0] congestionRatio 0
scalar FogNoLB.fog[17].server[0] totalJobs 517757
scalar FogNoLB.fog[17].server[0] droppedJobsQueue 11156
scalar FogNoLB.fog[17].server[0] droppedJobsTimout 0
scalar FogNoLB.fog[17].server[0] droppedJobsSLA 0
scalar FogNoLB.fog[17].server[0] droppedJobsTotal 11156
scalar FogNoLB.fog[18].dispatcher localJobs 517996
scalar FogNoLB.fog[18].dispatcher remoteJobs 0
scalar FogNoLB.fog[18].dispatcher probeQueries 0
scalar FogNoLB.fog[18].dispatcher probeAnswers 0
scalar FogNoLB.fog[18].dispatcher droppedJobsSLA 0
scalar FogNoLB.fog[18].dispatcher jobs_class_1 517996
scalar FogNoLB.fog[18].dispatcher localJobs_class_1 517996
scalar FogNoLB.fog[18].server[0] rho 0.78321725130081
scalar FogNoLB.fog[18].server[0] congestionRatio 0
scalar FogNoLB.fog[18].server[0] totalJobs 517996
scalar FogNoLB.fog[18].server[0] droppedJobsQueue 11482
scalar FogNoLB.fog[18].server[0] droppedJobsTimout 0
scalar FogNoLB.fog[18].server[0] droppedJobsSLA 0
scalar FogNoLB.fog[18].server[0] droppedJobsTotal 11482
scalar FogNoLB.fog[19].dispatcher localJobs 517104
scalar FogNoLB.fog[19].dispatcher remoteJobs 0
scalar FogNoLB.fog[19].dispatcher probeQueries 0
scalar FogNoLB.fog[19].dispatcher probeAnswers 0
scalar FogNoLB.fog[19].dispatcher droppedJobsSLA 0
scalar FogNoLB.fog[19].dispatcher jobs_class_1 517104
scalar FogNoLB.fog[19].dispatcher localJobs_class_1 517104
scalar FogNoLB.fog[19].server[0] rho 0.78144901990891
scalar FogNoLB.fog[19].server[0] congestionRatio 0
scalar FogNoLB.fog[19].server[0] totalJobs 517104
scalar FogNoLB.fog[19].server[0] droppedJobsQueue 11721
scalar FogNoLB.fog[19].server[0] droppedJobsTimout 0
scalar FogNoLB.fog[19].server[0] droppedJobsSLA 0
scalar FogNoLB.fog[19].server[0] droppedJobsTotal 11721
scalar FogNoLB.fog[20].dispatcher localJobs 517434
scalar FogNoLB.fog[20].dispatcher remoteJobs 0
scalar FogNoLB.fog[20].dispatcher probeQueries 0
scalar FogNoLB.fog[20].dispatcher probeAnswers 0
scalar FogNoLB.fog[20].dispatcher droppedJobsSLA 0
scalar FogNoLB.fog[20].dispatcher jobs_class_1 517434
scalar FogNoLB.fog[20].dispatcher localJobs_class_1 517434
scalar FogNoLB.fog[20].server[0] rho 0.78271180391312
scalar FogNoLB.fog[20].server[0] congestionRatio 0
scalar FogNoLB.fog[20].server[0] totalJobs 517434
scalar FogNoLB.fog[20].server[0] droppedJobsQueue 11246
scalar FogNoLB.fog[20].server[0] droppedJobsTimout 0
scalar FogNoLB.fog[20].server[0] droppedJobsSLA 0
scalar FogNoLB.fog[20].server[0] droppedJobsTotal 11246
scalar FogNoLB.fog[21].dispatcher localJobs 517193
scalar FogNoLB.fog[21].dispatcher remoteJobs 0
scalar FogNoLB.fog[21].dispatcher probeQueries 0
scalar FogNoLB.fog[21].dispatcher probeAnswers 0
scalar FogNoLB.fog[21].dispatcher droppedJobsSLA 0
scalar FogNoLB.fog[21].dispatcher jobs_class_1 517193
scalar FogNoLB.fog[21].dispatcher localJobs_class_1 517193
scalar FogNoLB.fog[21].server[0] rho 0.78222227096558
scalar FogNoLB.fog[21].server[0] congestionRatio 0
scalar FogNoLB.fog[21].server[0] totalJobs 517193
scalar FogNoLB.fog[21].server[0] droppedJobsQueue 11328
scalar FogNoLB.fog[21].server[0] droppedJobsTimout 0
scalar FogNoLB.fog[21].server[0] droppedJobsSLA 0
scalar FogNoLB.fog[21].server[0] droppedJobsTotal 11328
scalar FogNoLB.fog[22].dispatcher localJobs 518564
scalar FogNoLB.fog[22].dispatcher remoteJobs 0
scalar FogNoLB.fog[22].dispatcher probeQueries 0
scalar FogNoLB.fog[22].dispatcher probeAnswers 0
scalar FogNoLB.fog[22].dispatcher droppedJobsSLA 0
scalar FogNoLB.fog[22].dispatcher jobs_class_1 518564
scalar FogNoLB.fog[22].dispatcher localJobs_class_1 518564
scalar FogNoLB.fog[22].server[0] rho 0.78387951850891
scalar FogNoLB.fog[22].server[0] congestionRatio 0
scalar FogNoLB.fog[22].server[0] totalJobs 518564
scalar FogNoLB.fog[22].server[0] droppedJobsQueue 11612
scalar FogNoLB.fog[22].server[0] droppedJobsTimout 0
scalar FogNoLB.fog[22].server[0] droppedJobsSLA 0
scalar FogNoLB.fog[22].server[0] droppedJobsTotal 11612
scalar FogNoLB.fog[23].dispatcher localJobs 516920
scalar FogNoLB.fog[23].dispatcher remoteJobs 0
scalar FogNoLB.fog[23].dispatcher probeQueries 0
scalar FogNoLB.fog[23].dispatcher probeAnswers 0
scalar FogNoLB.fog[23].dispatcher droppedJobsSLA 0
scalar FogNoLB.fog[23].dispatcher jobs_class_1 516920
scalar FogNoLB.fog[23].dispatcher localJobs_class_1 516920
scalar FogNoLB.fog[23].server[0] rho 0.78175687789917
scalar FogNoLB.fog[23].server[0] congestionRatio 0
scalar FogNoLB.fog[23].server[0] totalJobs 516920
scalar FogNoLB.fog[23].server[0] droppedJobsQueue 11347
scalar FogNoLB.fog[23].server[0] droppedJobsTimout 0
scalar FogNoLB.fog[23].server[0] droppedJobsSLA 0
scalar FogNoLB.fog[23].server[0] droppedJobsTotal 11347
scalar FogNoLB.fog[24].dispatcher localJobs 517569
scalar FogNoLB.fog[24].dispatcher remoteJobs 0
scalar FogNoLB.fog[24].dispatcher probeQueries 0
scalar FogNoLB.fog[24].dispatcher probeAnswers 0
scalar FogNoLB.fog[24].dispatcher droppedJobsSLA 0
scalar FogNoLB.fog[24].dispatcher jobs_class_1 517569
scalar FogNoLB.fog[24].dispatcher localJobs_class_1 517569
scalar FogNoLB.fog[24].server[0] rho 0.78297913074493
scalar FogNoLB.fog[24].server[0] congestionRatio 0
scalar FogNoLB.fog[24].server[0] totalJobs 517569
scalar FogNoLB.fog[24].server[0] droppedJobsQueue 11203
scalar FogNoLB.fog[24].server[0] droppedJobsTimout 0
scalar FogNoLB.fog[24].server[0] droppedJobsSLA 0
scalar FogNoLB.fog[24].server[0] droppedJobsTotal 11203
scalar FogNoLB.fog[25].dispatcher localJobs 517039
scalar FogNoLB.fog[25].dispatcher remoteJobs 0
scalar FogNoLB.fog[25].dispatcher probeQueries 0
scalar FogNoLB.fog[25].dispatcher probeAnswers 0
scalar FogNoLB.fog[25].dispatcher droppedJobsSLA 0
scalar FogNoLB.fog[25].dispatcher jobs_class_1 517039
scalar FogNoLB.fog[25].dispatcher localJobs_class_1 517039
scalar FogNoLB.fog[25].server[0] rho 0.78221988677979
scalar FogNoLB.fog[25].server[0] congestionRatio 0
scalar FogNoLB.fog[25].server[0] totalJobs 517039
scalar FogNoLB.fog[25].server[0] droppedJobsQueue 11175
scalar FogNoLB.fog[25].server[0] droppedJobsTimout 0
scalar FogNoLB.fog[25].server[0] droppedJobsSLA 0
scalar FogNoLB.fog[25].server[0] droppedJobsTotal 11175
scalar FogNoLB.fog[26].dispatcher localJobs 518477
scalar FogNoLB.fog[26].dispatcher remoteJobs 0
scalar FogNoLB.fog[26].dispatcher probeQueries 0
scalar FogNoLB.fog[26].dispatcher probeAnswers 0
scalar FogNoLB.fog[26].dispatcher droppedJobsSLA 0
scalar FogNoLB.fog[26].dispatcher jobs_class_1 518477
scalar FogNoLB.fog[26].dispatcher localJobs_class_1 518477
scalar FogNoLB.fog[26].server[0] rho 0.78359133005142
scalar FogNoLB.fog[26].server[0] congestionRatio 0
scalar FogNoLB.fog[26].server[0] totalJobs 518477
scalar FogNoLB.fog[26].server[0] droppedJobsQueue 11707
scalar FogNoLB.fog[26].server[0] droppedJobsTimout 0
scalar FogNoLB.fog[26].server[0] droppedJobsSLA 0
scalar FogNoLB.fog[26].server[0] droppedJobsTotal 11707
scalar FogNoLB.fog[27].dispatcher localJobs 517082
scalar FogNoLB.fog[27].dispatcher remoteJobs 0
scalar FogNoLB.fog[27].dispatcher probeQueries 0
scalar FogNoLB.fog[27].dispatcher probeAnswers 0
scalar FogNoLB.fog[27].dispatcher droppedJobsSLA 0
scalar FogNoLB.fog[27].dispatcher jobs_class_1 517082
scalar FogNoLB.fog[27].dispatcher localJobs_class_1 517082
scalar FogNoLB.fog[27].server[0] rho 0.78239291906357
scalar FogNoLB.fog[27].server[0] congestionRatio 0
scalar FogNoLB.fog[27].server[0] totalJobs 517082
scalar FogNoLB.fog[27].server[0] droppedJobsQueue 11089
scalar FogNoLB.fog[27].server[0] droppedJobsTimout 0
scalar FogNoLB.fog[27].server[0] droppedJobsSLA 0
scalar FogNoLB.fog[27].server[0] droppedJobsTotal 11089
scalar FogNoLB.fog[28].dispatcher localJobs 519038
scalar FogNoLB.fog[28].dispatcher remoteJobs 0
scalar FogNoLB.fog[28].dispatcher probeQueries 0
scalar FogNoLB.fog[28].dispatcher probeAnswers 0
scalar FogNoLB.fog[28].dispatcher droppedJobsSLA 0
scalar FogNoLB.fog[28].dispatcher jobs_class_1 519038
scalar FogNoLB.fog[28].dispatcher localJobs_class_1 519038
scalar FogNoLB.fog[28].server[0] rho 0.78433656692505
scalar FogNoLB.fog[28].server[0] congestionRatio 0
scalar FogNoLB.fog[28].server[0] totalJobs 519038
scalar FogNoLB.fog[28].server[0] droppedJobsQueue 11790
scalar FogNoLB.fog[28].server[0] droppedJobsTimout 0
scalar FogNoLB.fog[28].server[0] droppedJobsSLA 0
scalar FogNoLB.fog[28].server[0] droppedJobsTotal 11790
scalar FogNoLB.fog[29].dispatcher localJobs 517344
scalar FogNoLB.fog[29].dispatcher remoteJobs 0
scalar FogNoLB.fog[29].dispatcher probeQueries 0
scalar FogNoLB.fog[29].dispatcher probeAnswers 0
scalar FogNoLB.fog[29].dispatcher droppedJobsSLA 0
scalar FogNoLB.fog[29].dispatcher jobs_class_1 517344
scalar FogNoLB.fog[29].dispatcher localJobs_class_1 517344
scalar FogNoLB.fog[29].server[0] rho 0.78265571594238
scalar FogNoLB.fog[29].server[0] congestionRatio 0
scalar FogNoLB.fog[29].server[0] totalJobs 517344
scalar FogNoLB.fog[29].server[0] droppedJobsQueue 11181
scalar FogNoLB.fog[29].server[0] droppedJobsTimout 0
scalar FogNoLB.fog[29].server[0] droppedJobsSLA 0
scalar FogNoLB.fog[29].server[0] droppedJobsTotal 11181
scalar FogNoLB.fog[30].dispatcher localJobs 517560
scalar FogNoLB.fog[30].dispatcher remoteJobs 0
scalar FogNoLB.fog[30].dispatcher probeQueries 0
scalar FogNoLB.fog[30].dispatcher probeAnswers 0
scalar FogNoLB.fog[30].dispatcher droppedJobsSLA 0
scalar FogNoLB.fog[30].dispatcher jobs_class_1 517560
scalar FogNoLB.fog[30].dispatcher localJobs_class_1 517560
scalar FogNoLB.fog[30].server[0] rho 0.7823429107666
scalar FogNoLB.fog[30].server[0] congestionRatio 0
scalar FogNoLB.fog[30].server[0] totalJobs 517560
scalar FogNoLB.fog[30].server[0] droppedJobsQueue 11580
scalar FogNoLB.fog[30].server[0] droppedJobsTimout 0
scalar FogNoLB.fog[30].server[0] droppedJobsSLA 0
scalar FogNoLB.fog[30].server[0] droppedJobsTotal 11580
scalar FogNoLB.fog[31].dispatcher localJobs 517751
scalar FogNoLB.fog[31].dispatcher remoteJobs 0
scalar FogNoLB.fog[31].dispatcher probeQueries 0
scalar FogNoLB.fog[31].dispatcher probeAnswers 0
scalar FogNoLB.fog[31].dispatcher droppedJobsSLA 0
scalar FogNoLB.fog[31].dispatcher jobs_class_1 517751
scalar FogNoLB.fog[31].dispatcher localJobs_class_1 517751
scalar FogNoLB.fog[31].server[0] rho 0.78293168544769
scalar FogNoLB.fog[31].server[0] congestionRatio 0
scalar FogNoLB.fog[31].server[0] totalJobs 517751
scalar FogNoLB.fog[31].server[0] droppedJobsQueue 11437
scalar FogNoLB.fog[31].server[0] droppedJobsTimout 0
scalar FogNoLB.fog[31].server[0] droppedJobsSLA 0
scalar FogNoLB.fog[31].server[0] droppedJobsTotal 11437
scalar FogNoLB.fog[32].dispatcher localJobs 516775
scalar FogNoLB.fog[32].dispatcher remoteJobs 0
scalar FogNoLB.fog[32].dispatcher probeQueries 0
scalar FogNoLB.fog[32].dispatcher probeAnswers 0
scalar FogNoLB.fog[32].dispatcher droppedJobsSLA 0
scalar FogNoLB.fog[32].dispatcher jobs_class_1 516775
scalar FogNoLB.fog[32].dispatcher localJobs_class_1 516775
scalar FogNoLB.fog[32].server[0] rho 0.78176254034042
scalar FogNoLB.fog[32].server[0] congestionRatio 0
scalar FogNoLB.fog[32].server[0] totalJobs 516775
scalar FogNoLB.fog[32].server[0] droppedJobsQueue 11189
scalar FogNoLB.fog[32].server[0] droppedJobsTimout 0
scalar FogNoLB.fog[32].server[0] droppedJobsSLA 0
scalar FogNoLB.fog[32].server[0] droppedJobsTotal 11189
scalar FogNoLB.fog[33].dispatcher localJobs 516765
scalar FogNoLB.fog[33].dispatcher remoteJobs 0
scalar FogNoLB.fog[33].dispatcher probeQueries 0
scalar FogNoLB.fog[33].dispatcher probeAnswers 0
scalar FogNoLB.fog[33].dispatcher droppedJobsSLA 0
scalar FogNoLB.fog[33].dispatcher jobs_class_1 516765
scalar FogNoLB.fog[33].dispatcher localJobs_class_1 516765
scalar FogNoLB.fog[33].server[0] rho 0.78181797266006
scalar FogNoLB.fog[33].server[0] congestionRatio 0
scalar FogNoLB.fog[33].server[0] totalJobs 516765
scalar FogNoLB.fog[33].server[0] droppedJobsQueue 11161
scalar FogNoLB.fog[33].server[0] droppedJobsTimout 0
scalar FogNoLB.fog[33].server[0] droppedJobsSLA 0
scalar FogNoLB.fog[33].server[0] droppedJobsTotal 11161
scalar FogNoLB.fog[34].dispatcher localJobs 517880
scalar FogNoLB.fog[34].dispatcher remoteJobs 0
scalar FogNoLB.fog[34].dispatcher probeQueries 0
scalar FogNoLB.fog[34].dispatcher probeAnswers 0
scalar FogNoLB.fog[34].dispatcher droppedJobsSLA 0
scalar FogNoLB.fog[34].dispatcher jobs_class_1 517880
scalar FogNoLB.fog[34].dispatcher localJobs_class_1 517880
scalar FogNoLB.fog[34].server[0] rho 0.78296542167664
scalar FogNoLB.fog[34].server[0] congestionRatio 0
scalar FogNoLB.fog[34].server[0] totalJobs 517880
scalar FogNoLB.fog[34].server[0] droppedJobsQueue 11533
scalar FogNoLB.fog[34].server[0] droppedJobsTimout 0
scalar FogNoLB.fog[34].server[0] droppedJobsSLA 0
scalar FogNoLB.fog[34].server[0] droppedJobsTotal 11533
scalar FogNoLB.fog[35].dispatcher localJobs 516467
scalar FogNoLB.fog[35].dispatcher remoteJobs 0
scalar FogNoLB.fog[35].dispatcher probeQueries 0
scalar FogNoLB.fog[35].dispatcher probeAnswers 0
scalar FogNoLB.fog[35].dispatcher droppedJobsSLA 0
scalar FogNoLB.fog[35].dispatcher jobs_class_1 516467
scalar FogNoLB.fog[35].dispatcher localJobs_class_1 516467
scalar FogNoLB.fog[35].server[0] rho 0.78111004829407
scalar FogNoLB.fog[35].server[0] congestionRatio 0
scalar FogNoLB.fog[35].server[0] totalJobs 516467
scalar FogNoLB.fog[35].server[0] droppedJobsQueue 11332
scalar FogNoLB.fog[35].server[0] droppedJobsTimout 0
scalar FogNoLB.fog[35].server[0] droppedJobsSLA 0
scalar FogNoLB.fog[35].server[0] droppedJobsTotal 11332
scalar FogNoLB.fog[36].dispatcher localJobs 515809
scalar FogNoLB.fog[36].dispatcher remoteJobs 0
scalar FogNoLB.fog[36].dispatcher probeQueries 0
scalar FogNoLB.fog[36].dispatcher probeAnswers 0
scalar FogNoLB.fog[36].dispatcher droppedJobsSLA 0
scalar FogNoLB.fog[36].dispatcher jobs_class_1 515809
scalar FogNoLB.fog[36].dispatcher localJobs_class_1 515809
scalar FogNoLB.fog[36].server[0] rho 0.78029274940491
scalar FogNoLB.fog[36].server[0] congestionRatio 0
scalar FogNoLB.fog[36].server[0] totalJobs 515809
scalar FogNoLB.fog[36].server[0] droppedJobsQueue 11183
scalar FogNoLB.fog[36].server[0] droppedJobsTimout 0
scalar FogNoLB.fog[36].server[0] droppedJobsSLA 0
scalar FogNoLB.fog[36].server[0] droppedJobsTotal 11183
scalar FogNoLB.fog[37].dispatcher localJobs 515602
scalar FogNoLB.fog[37].dispatcher remoteJobs 0
scalar FogNoLB.fog[37].dispatcher probeQueries 0
scalar FogNoLB.fog[37].dispatcher probeAnswers 0
scalar FogNoLB.fog[37].dispatcher droppedJobsSLA 0
scalar FogNoLB.fog[37].dispatcher jobs_class_1 515602
scalar FogNoLB.fog[37].dispatcher localJobs_class_1 515602
scalar FogNoLB.fog[37].server[0] rho 0.78029674291611
scalar FogNoLB.fog[37].server[0] congestionRatio 0
scalar FogNoLB.fog[37].server[0] totalJobs 515602
scalar FogNoLB.fog[37].server[0] droppedJobsQueue 10968
scalar FogNoLB.fog[37].server[0] droppedJobsTimout 0
scalar FogNoLB.fog[37].server[0] droppedJobsSLA 0
scalar FogNoLB.fog[37].server[0] droppedJobsTotal 10968
scalar FogNoLB.fog[38].dispatcher localJobs 516403
scalar FogNoLB.fog[38].dispatcher remoteJobs 0
scalar FogNoLB.fog[38].dispatcher probeQueries 0
scalar FogNoLB.fog[38].dispatcher probeAnswers 0
scalar FogNoLB.fog[38].dispatcher droppedJobsSLA 0
scalar FogNoLB.fog[38].dispatcher jobs_class_1 516403
scalar FogNoLB.fog[38].dispatcher localJobs_class_1 516403
scalar FogNoLB.fog[38].server[0] rho 0.78137916326523
scalar FogNoLB.fog[38].server[0] congestionRatio 0
scalar FogNoLB.fog[38].server[0] totalJobs 516403
scalar FogNoLB.fog[38].server[0] droppedJobsQueue 11046
scalar FogNoLB.fog[38].server[0] droppedJobsTimout 0
scalar FogNoLB.fog[38].server[0] droppedJobsSLA 0
scalar FogNoLB.fog[38].server[0] droppedJobsTotal 11046
scalar FogNoLB.fog[39].dispatcher localJobs 518199
scalar FogNoLB.fog[39].dispatcher remoteJobs 0
scalar FogNoLB.fog[39].dispatcher probeQueries 0
scalar FogNoLB.fog[39].dispatcher probeAnswers 0
scalar FogNoLB.fog[39].dispatcher droppedJobsSLA 0
scalar FogNoLB.fog[39].dispatcher jobs_class_1 518199
scalar FogNoLB.fog[39].dispatcher localJobs_class_1 518199
scalar FogNoLB.fog[39].server[0] rho 0.78357011079788
scalar FogNoLB.fog[39].server[0] congestionRatio 0
scalar FogNoLB.fog[39].server[0] totalJobs 518199
scalar FogNoLB.fog[39].server[0] droppedJobsQueue 11478
scalar FogNoLB.fog[39].server[0] droppedJobsTimout 0
scalar FogNoLB.fog[39].server[0] droppedJobsSLA 0
scalar FogNoLB.fog[39].server[0] droppedJobsTotal 11478
scalar FogNoLB.fog[40].dispatcher localJobs 517731
scalar FogNoLB.fog[40].dispatcher remoteJobs 0
scalar FogNoLB.fog[40].dispatcher probeQueries 0
scalar FogNoLB.fog[40].dispatcher probeAnswers 0
scalar FogNoLB.fog[40].dispatcher droppedJobsSLA 0
scalar FogNoLB.fog[40].dispatcher jobs_class_1 517731
scalar FogNoLB.fog[40].dispatcher localJobs_class_1 517731
scalar FogNoLB.fog[40].server[0] rho 0.78286951780319
scalar FogNoLB.fog[40].server[0] congestionRatio 0
scalar FogNoLB.fog[40].server[0] totalJobs 517731
scalar FogNoLB.fog[40].server[0] droppedJobsQueue 11443
scalar FogNoLB.fog[40].server[0] droppedJobsTimout 0
scalar FogNoLB.fog[40].server[0] droppedJobsSLA 0
scalar FogNoLB.fog[40].server[0] droppedJobsTotal 11443
scalar FogNoLB.fog[41].dispatcher localJobs 517386
scalar FogNoLB.fog[41].dispatcher remoteJobs 0
scalar FogNoLB.fog[41].dispatcher probeQueries 0
scalar FogNoLB.fog[41].dispatcher probeAnswers 0
scalar FogNoLB.fog[41].dispatcher droppedJobsSLA 0
scalar FogNoLB.fog[41].dispatcher jobs_class_1 517386
scalar FogNoLB.fog[41].dispatcher localJobs_class_1 517386
scalar FogNoLB.fog[41].server[0] rho 0.78264898061752
scalar FogNoLB.fog[41].server[0] congestionRatio 0
scalar FogNoLB.fog[41].server[0] totalJobs 517386
scalar FogNoLB.fog[41].server[0] droppedJobsQueue 11259
scalar FogNoLB.fog[41].server[0] droppedJobsTimout 0
scalar FogNoLB.fog[41].server[0] droppedJobsSLA 0
scalar FogNoLB.fog[41].server[0] droppedJobsTotal 11259
scalar FogNoLB.fog[42].dispatcher localJobs 516661
scalar FogNoLB.fog[42].dispatcher remoteJobs 0
scalar FogNoLB.fog[42].dispatcher probeQueries 0
scalar FogNoLB.fog[42].dispatcher probeAnswers 0
scalar FogNoLB.fog[42].dispatcher droppedJobsSLA 0
scalar FogNoLB.fog[42].dispatcher jobs_class_1 516661
scalar FogNoLB.fog[42].dispatcher localJobs_class_1 516661
scalar FogNoLB.fog[42].server[0] rho 0.78167176246643
scalar FogNoLB.fog[42].server[0] congestionRatio 0
scalar FogNoLB.fog[42].server[0] totalJobs 516661
scalar FogNoLB.fog[42].server[0] droppedJobsQueue 11161
scalar FogNoLB.fog[42].server[0] droppedJobsTimout 0
scalar FogNoLB.fog[42].server[0] droppedJobsSLA 0
scalar FogNoLB.fog[42].server[0] droppedJobsTotal 11161
scalar FogNoLB.fog[43].dispatcher localJobs 516783
scalar FogNoLB.fog[43].dispatcher remoteJobs 0
scalar FogNoLB.fog[43].dispatcher probeQueries 0
scalar FogNoLB.fog[43].dispatcher probeAnswers 0
scalar FogNoLB.fog[43].dispatcher droppedJobsSLA 0
scalar FogNoLB.fog[43].dispatcher jobs_class_1 516783
scalar FogNoLB.fog[43].dispatcher localJobs_class_1 516783
scalar FogNoLB.fog[43].server[0] rho 0.78139895200729
scalar FogNoLB.fog[43].server[0] congestionRatio 0
scalar FogNoLB.fog[43].server[0] totalJobs 516783
scalar FogNoLB.fog[43].server[0] droppedJobsQueue 11440
scalar FogNoLB.fog[43].server[0] droppedJobsTimout 0
scalar FogNoLB.fog[43].server[0] droppedJobsSLA 0
scalar FogNoLB.fog[43].server[0] droppedJobsTotal 11440
scalar FogNoLB.fog[44].dispatcher localJobs 517979
scalar FogNoLB.fog[44].dispatcher remoteJobs 0
scalar FogNoLB.fog[44].dispatcher probeQueries 0
scalar FogNoLB.fog[44].dispatcher probeAnswers 0
scalar FogNoLB.fog[44].dispatcher droppedJobsSLA 0
scalar FogNoLB.fog[44].dispatcher jobs_class_1 517979
scalar FogNoLB.fog[44].dispatcher localJobs_class_1 517979
scalar FogNoLB.fog[44].server[0] rho 0.78340309858322
scalar FogNoLB.fog[44].server[0] congestionRatio 0
scalar FogNoLB.fog[44].server[0] totalJobs 517979
scalar FogNoLB.fog[44].server[0] droppedJobsQueue 11342
scalar FogNoLB.fog[44].server[0] droppedJobsTimout 0
scalar FogNoLB.fog[44].server[0] droppedJobsSLA 0
scalar FogNoLB.fog[44].server[0] droppedJobsTotal 11342
scalar FogNoLB.fog[45].dispatcher localJobs 517259
scalar FogNoLB.fog[45].dispatcher remoteJobs 0
scalar FogNoLB.fog[45].dispatcher probeQueries 0
scalar FogNoLB.fog[45].dispatcher probeAnswers 0
scalar FogNoLB.fog[45].dispatcher droppedJobsSLA 0
scalar FogNoLB.fog[45].dispatcher jobs_class_1 517259
scalar FogNoLB.fog[45].dispatcher localJobs_class_1 517259
scalar FogNoLB.fog[45].server[0] rho 0.78211933374405
scalar FogNoLB.fog[45].server[0] congestionRatio 0
scalar FogNoLB.fog[45].server[0] totalJobs 517259
scalar FogNoLB.fog[45].server[0] droppedJobsQueue 11447
scalar FogNoLB.fog[45].server[0] droppedJobsTimout 0
scalar FogNoLB.fog[45].server[0] droppedJobsSLA 0
scalar FogNoLB.fog[45].server[0] droppedJobsTotal 11447
scalar FogNoLB.fog[46].dispatcher localJobs 516996
scalar FogNoLB.fog[46].dispatcher remoteJobs 0
scalar FogNoLB.fog[46].dispatcher probeQueries 0
scalar FogNoLB.fog[46].dispatcher probeAnswers 0
scalar FogNoLB.fog[46].dispatcher droppedJobsSLA 0
scalar FogNoLB.fog[46].dispatcher jobs_class_1 516996
scalar FogNoLB.fog[46].dispatcher localJobs_class_1 516996
scalar FogNoLB.fog[46].server[0] rho 0.78193134069443
scalar FogNoLB.fog[46].server[0] congestionRatio 0
scalar FogNoLB.fog[46].server[0] totalJobs 516996
scalar FogNoLB.fog[46].server[0] droppedJobsQueue 11309
scalar FogNoLB.fog[46].server[0] droppedJobsTimout 0
scalar FogNoLB.fog[46].server[0] droppedJobsSLA 0
scalar FogNoLB.fog[46].server[0] droppedJobsTotal 11309
scalar FogNoLB.fog[47].dispatcher localJobs 517930
scalar FogNoLB.fog[47].dispatcher remoteJobs 0
scalar FogNoLB.fog[47].dispatcher probeQueries 0
scalar FogNoLB.fog[47].dispatcher probeAnswers 0
scalar FogNoLB.fog[47].dispatcher droppedJobsSLA 0
scalar FogNoLB.fog[47].dispatcher jobs_class_1 517930
scalar FogNoLB.fog[47].dispatcher localJobs_class_1 517930
scalar FogNoLB.fog[47].server[0] rho 0.78324270248413
scalar FogNoLB.fog[47].server[0] congestionRatio 0
scalar FogNoLB.fog[47].server[0] totalJobs 517930
scalar FogNoLB.fog[47].server[0] droppedJobsQueue 11361
scalar FogNoLB.fog[47].server[0] droppedJobsTimout 0
scalar FogNoLB.fog[47].server[0] droppedJobsSLA 0
scalar FogNoLB.fog[47].server[0] droppedJobsTotal 11361
scalar FogNoLB.fog[48].dispatcher localJobs 517687
scalar FogNoLB.fog[48].dispatcher remoteJobs 0
scalar FogNoLB.fog[48].dispatcher probeQueries 0
scalar FogNoLB.fog[48].dispatcher probeAnswers 0
scalar FogNoLB.fog[48].dispatcher droppedJobsSLA 0
scalar FogNoLB.fog[48].dispatcher jobs_class_1 517687
scalar FogNoLB.fog[48].dispatcher localJobs_class_1 517687
scalar FogNoLB.fog[48].server[0] rho 0.78292405605316
scalar FogNoLB.fog[48].server[0] congestionRatio 0
scalar FogNoLB.fog[48].server[0] totalJobs 517687
scalar FogNoLB.fog[48].server[0] droppedJobsQueue 11364
scalar FogNoLB.fog[48].server[0] droppedJobsTimout 0
scalar FogNoLB.fog[48].server[0] droppedJobsSLA 0
scalar FogNoLB.fog[48].server[0] droppedJobsTotal 11364
scalar FogNoLB.fog[49].dispatcher localJobs 517325
scalar FogNoLB.fog[49].dispatcher remoteJobs 0
scalar FogNoLB.fog[49].dispatcher probeQueries 0
scalar FogNoLB.fog[49].dispatcher probeAnswers 0
scalar FogNoLB.fog[49].dispatcher droppedJobsSLA 0
scalar FogNoLB.fog[49].dispatcher jobs_class_1 517325
scalar FogNoLB.fog[49].dispatcher localJobs_class_1 517325
scalar FogNoLB.fog[49].server[0] rho 0.78229409456253
scalar FogNoLB.fog[49].server[0] congestionRatio 0
scalar FogNoLB.fog[49].server[0] totalJobs 517325
scalar FogNoLB.fog[49].server[0] droppedJobsQueue 11410
scalar FogNoLB.fog[49].server[0] droppedJobsTimout 0
scalar FogNoLB.fog[49].server[0] droppedJobsSLA 0
scalar FogNoLB.fog[49].server[0] droppedJobsTotal 11410
scalar FogNoLB.fog[50].dispatcher localJobs 517893
scalar FogNoLB.fog[50].dispatcher remoteJobs 0
scalar FogNoLB.fog[50].dispatcher probeQueries 0
scalar FogNoLB.fog[50].dispatcher probeAnswers 0
scalar FogNoLB.fog[50].dispatcher droppedJobsSLA 0
scalar FogNoLB.fog[50].dispatcher jobs_class_1 517893
scalar FogNoLB.fog[50].dispatcher localJobs_class_1 517893
scalar FogNoLB.fog[50].server[0] rho 0.78266167640686
scalar FogNoLB.fog[50].server[0] congestionRatio 0
scalar FogNoLB.fog[50].server[0] totalJobs 517893
scalar FogNoLB.fog[50].server[0] droppedJobsQueue 11754
scalar FogNoLB.fog[50].server[0] droppedJobsTimout 0
scalar FogNoLB.fog[50].server[0] droppedJobsSLA 0
scalar FogNoLB.fog[50].server[0] droppedJobsTotal 11754
scalar FogNoLB.fog[51].dispatcher localJobs 516240
scalar FogNoLB.fog[51].dispatcher remoteJobs 0
scalar FogNoLB.fog[51].dispatcher probeQueries 0
scalar FogNoLB.fog[51].dispatcher probeAnswers 0
scalar FogNoLB.fog[51].dispatcher droppedJobsSLA 0
scalar FogNoLB.fog[51].dispatcher jobs_class_1 516240
scalar FogNoLB.fog[51].dispatcher localJobs_class_1 516240
scalar FogNoLB.fog[51].server[0] rho 0.78112071752548
scalar FogNoLB.fog[51].server[0] congestionRatio 0
scalar FogNoLB.fog[51].server[0] totalJobs 516240
scalar FogNoLB.fog[51].server[0] droppedJobsQueue 11105
scalar FogNoLB.fog[51].server[0] droppedJobsTimout 0
scalar FogNoLB.fog[51].server[0] droppedJobsSLA 0
scalar FogNoLB.fog[51].server[0] droppedJobsTotal 11105
scalar FogNoLB.fog[52].dispatcher localJobs 515529
scalar FogNoLB.fog[52].dispatcher remoteJobs 0
scalar FogNoLB.fog[52].dispatcher probeQueries 0
scalar FogNoLB.fog[52].dispatcher probeAnswers 0
scalar FogNoLB.fog[52].dispatcher droppedJobsSLA 0
scalar FogNoLB.fog[52].dispatcher jobs_class_1 515529
scalar FogNoLB.fog[52].dispatcher localJobs_class_1 515529
scalar FogNoLB.fog[52].server[0] rho 0.78001302480698
scalar FogNoLB.fog[52].server[0] congestionRatio 0
scalar FogNoLB.fog[52].server[0] totalJobs 515529
scalar FogNoLB.fog[52].server[0] droppedJobsQueue 11074
scalar FogNoLB.fog[52].server[0] droppedJobsTimout 0
scalar FogNoLB.fog[52].server[0] droppedJobsSLA 0
scalar FogNoLB.fog[52].server[0] droppedJobsTotal 11074
scalar FogNoLB.fog[53].dispatcher localJobs 517490
scalar FogNoLB.fog[53].dispatcher remoteJobs 0
scalar FogNoLB.fog[53].dispatcher probeQueries 0
scalar FogNoLB.fog[53].dispatcher probeAnswers 0
scalar FogNoLB.fog[53].dispatcher droppedJobsSLA 0
scalar FogNoLB.fog[53].dispatcher jobs_class_1 517490
scalar FogNoLB.fog[53].dispatcher localJobs_class_1 517490
scalar FogNoLB.fog[53].server[0] rho 0.78291994333267
scalar FogNoLB.fog[53].server[0] congestionRatio 0
scalar FogNoLB.fog[53].server[0] totalJobs 517490
scalar FogNoLB.fog[53].server[0] droppedJobsQueue 11214
scalar FogNoLB.fog[53].server[0] droppedJobsTimout 0
scalar FogNoLB.fog[53].server[0] droppedJobsSLA 0
scalar FogNoLB.fog[53].server[0] droppedJobsTotal 11214
scalar FogNoLB.fog[54].dispatcher localJobs 516940
scalar FogNoLB.fog[54].dispatcher remoteJobs 0
scalar FogNoLB.fog[54].dispatcher probeQueries 0
scalar FogNoLB.fog[54].dispatcher probeAnswers 0
scalar FogNoLB.fog[54].dispatcher droppedJobsSLA 0
scalar FogNoLB.fog[54].dispatcher jobs_class_1 516940
scalar FogNoLB.fog[54].dispatcher localJobs_class_1 516940
scalar FogNoLB.fog[54].server[0] rho 0.78260016441345
scalar FogNoLB.fog[54].server[0] congestionRatio 0
scalar FogNoLB.fog[54].server[0] totalJobs 516940
scalar FogNoLB.fog[54].server[0] droppedJobsQueue 10844
scalar FogNoLB.fog[54].server[0] droppedJobsTimout 0
scalar FogNoLB.fog[54].server[0] droppedJobsSLA 0
scalar FogNoLB.fog[54].server[0] droppedJobsTotal 10844
scalar FogNoLB.fog[55].dispatcher localJobs 515922
scalar FogNoLB.fog[55].dispatcher remoteJobs 0
scalar FogNoLB.fog[55].dispatcher probeQueries 0
scalar FogNoLB.fog[55].dispatcher probeAnswers 0
scalar FogNoLB.fog[55].dispatcher droppedJobsSLA 0
scalar FogNoLB.fog[55].dispatcher jobs_class_1 515922
scalar FogNoLB.fog[55].dispatcher localJobs_class_1 515922
scalar FogNoLB.fog[55].server[0] rho 0.78081744909286
scalar FogNoLB.fog[55].server[0] congestionRatio 0
scalar FogNoLB.fog[55].server[0] totalJobs 515922
scalar FogNoLB.fog[55].server[0] droppedJobsQueue 10961
scalar FogNoLB.fog[55].server[0] droppedJobsTimout 0
scalar FogNoLB.fog[55].server[0] droppedJobsSLA 0
scalar FogNoLB.fog[55].server[0] droppedJobsTotal 10961
scalar FogNoLB.fog[56].dispatcher localJobs 517579
scalar FogNoLB.fog[56].dispatcher remoteJobs 0
scalar FogNoLB.fog[56].dispatcher probeQueries 0
scalar FogNoLB.fog[56].dispatcher probeAnswers 0
scalar FogNoLB.fog[56].dispatcher droppedJobsSLA 0
scalar FogNoLB.fog[56].dispatcher jobs_class_1 517579
scalar FogNoLB.fog[56].dispatcher localJobs_class_1 517579
scalar FogNoLB.fog[56].server[0] rho 0.78282141685486
scalar FogNoLB.fog[56].server[0] congestionRatio 0
scalar FogNoLB.fog[56].server[0] totalJobs 517579
scalar FogNoLB.fog[56].server[0] droppedJobsQueue 11337
scalar FogNoLB.fog[56].server[0] droppedJobsTimout 0
scalar FogNoLB.fog[56].server[0] droppedJobsSLA 0
scalar FogNoLB.fog[56].server[0] droppedJobsTotal 11337
scalar FogNoLB.fog[57].dispatcher localJobs 517825
scalar FogNoLB.fog[57].dispatcher remoteJobs 0
scalar FogNoLB.fog[57].dispatcher probeQueries 0
scalar FogNoLB.fog[57].dispatcher probeAnswers 0
scalar FogNoLB.fog[57].dispatcher droppedJobsSLA 0
scalar FogNoLB.fog[57].dispatcher jobs_class_1 517825
scalar FogNoLB.fog[57].dispatcher localJobs_class_1 517825
scalar FogNoLB.fog[57].server[0] rho 0.78306359052658
scalar FogNoLB.fog[57].server[0] congestionRatio 0
scalar FogNoLB.fog[57].server[0] totalJobs 517825
scalar FogNoLB.fog[57].server[0] droppedJobsQueue 11392
scalar FogNoLB.fog[57].server[0] droppedJobsTimout 0
scalar FogNoLB.fog[57].server[0] droppedJobsSLA 0
scalar FogNoLB.fog[57].server[0] droppedJobsTotal 11392
scalar FogNoLB.fog[58].dispatcher localJobs 515392
scalar FogNoLB.fog[58].dispatcher remoteJobs 0
scalar FogNoLB.fog[58].dispatcher probeQueries 0
scalar FogNoLB.fog[58].dispatcher probeAnswers 0
scalar FogNoLB.fog[58].dispatcher droppedJobsSLA 0
scalar FogNoLB.fog[58].dispatcher jobs_class_1 515392
scalar FogNoLB.fog[58].dispatcher localJobs_class_1 515392
scalar FogNoLB.fog[58].server[0] rho 0.77977615594864
scalar FogNoLB.fog[58].server[0] congestionRatio 0
scalar FogNoLB.fog[58].server[0] totalJobs 515392
scalar FogNoLB.fog[58].server[0] droppedJobsQueue 11113
scalar FogNoLB.fog[58].server[0] droppedJobsTimout 0
scalar FogNoLB.fog[58].server[0] droppedJobsSLA 0
scalar FogNoLB.fog[58].server[0] droppedJobsTotal 11113
scalar FogNoLB.fog[59].dispatcher localJobs 518421
scalar FogNoLB.fog[59].dispatcher remoteJobs 0
scalar FogNoLB.fog[59].dispatcher probeQueries 0
scalar FogNoLB.fog[59].dispatcher probeAnswers 0
scalar FogNoLB.fog[59].dispatcher droppedJobsSLA 0
scalar FogNoLB.fog[59].dispatcher jobs_class_1 518421
scalar FogNoLB.fog[59].dispatcher localJobs_class_1 518421
scalar FogNoLB.fog[59].server[0] rho 0.78395259380341
scalar FogNoLB.fog[59].server[0] congestionRatio 0
scalar FogNoLB.fog[59].server[0] totalJobs 518421
scalar FogNoLB.fog[59].server[0] droppedJobsQueue 11450
scalar FogNoLB.fog[59].server[0] droppedJobsTimout 0
scalar FogNoLB.fog[59].server[0] droppedJobsSLA 0
scalar FogNoLB.fog[59].server[0] droppedJobsTotal 11450
scalar FogNoLB.fog[60].dispatcher localJobs 517854
scalar FogNoLB.fog[60].dispatcher remoteJobs 0
scalar FogNoLB.fog[60].dispatcher probeQueries 0
scalar FogNoLB.fog[60].dispatcher probeAnswers 0
scalar FogNoLB.fog[60].dispatcher droppedJobsSLA 0
scalar FogNoLB.fog[60].dispatcher jobs_class_1 517854
scalar FogNoLB.fog[60].dispatcher localJobs_class_1 517854
scalar FogNoLB.fog[60].server[0] rho 0.78293508291245
scalar FogNoLB.fog[60].server[0] congestionRatio 0
scalar FogNoLB.fog[60].server[0] totalJobs 517854
scalar FogNoLB.fog[60].server[0] droppedJobsQueue 11531
scalar FogNoLB.fog[60].server[0] droppedJobsTimout 0
scalar FogNoLB.fog[60].server[0] droppedJobsSLA 0
scalar FogNoLB.fog[60].server[0] droppedJobsTotal 11531
scalar FogNoLB.fog[61].dispatcher localJobs 518153
scalar FogNoLB.fog[61].dispatcher remoteJobs 0
scalar FogNoLB.fog[61].dispatcher probeQueries 0
scalar FogNoLB.fog[61].dispatcher probeAnswers 0
scalar FogNoLB.fog[61].dispatcher droppedJobsSLA 0
scalar FogNoLB.fog[61].dispatcher jobs_class_1 518153
scalar FogNoLB.fog[61].dispatcher localJobs_class_1 518153
scalar FogNoLB.fog[61].server[0] rho 0.78354299068451
scalar FogNoLB.fog[61].server[0] congestionRatio 0
scalar FogNoLB.fog[61].server[0] totalJobs 518153
scalar FogNoLB.fog[61].server[0] droppedJobsQueue 11435
scalar FogNoLB.fog[61].server[0] droppedJobsTimout 0
scalar FogNoLB.fog[61].server[0] droppedJobsSLA 0
scalar FogNoLB.fog[61].server[0] droppedJobsTotal 11435
scalar FogNoLB.fog[62].dispatcher localJobs 516857
scalar FogNoLB.fog[62].dispatcher remoteJobs 0
scalar FogNoLB.fog[62].dispatcher probeQueries 0
scalar FogNoLB.fog[62].dispatcher probeAnswers 0
scalar FogNoLB.fog[62].dispatcher droppedJobsSLA 0
scalar FogNoLB.fog[62].dispatcher jobs_class_1 516857
scalar FogNoLB.fog[62].dispatcher localJobs_class_1 516857
scalar FogNoLB.fog[62].server[0] rho 0.78181046247482
scalar FogNoLB.fog[62].server[0] congestionRatio 0
scalar FogNoLB.fog[62].server[0] totalJobs 516857
scalar FogNoLB.fog[62].server[0] droppedJobsQueue 11244
scalar FogNoLB.fog[62].server[0] droppedJobsTimout 0
scalar FogNoLB.fog[62].server[0] droppedJobsSLA 0
scalar FogNoLB.fog[62].server[0] droppedJobsTotal 11244
scalar FogNoLB.fog[63].dispatcher localJobs 516927
scalar FogNoLB.fog[63].dispatcher remoteJobs 0
scalar FogNoLB.fog[63].dispatcher probeQueries 0
scalar FogNoLB.fog[63].dispatcher probeAnswers 0
scalar FogNoLB.fog[63].dispatcher droppedJobsSLA 0
scalar FogNoLB.fog[63].dispatcher jobs_class_1 516927
scalar FogNoLB.fog[63].dispatcher localJobs_class_1 516927
scalar FogNoLB.fog[63].server[0] rho 0.78149527311325
scalar FogNoLB.fog[63].server[0] congestionRatio 0
scalar FogNoLB.fog[63].server[0] totalJobs 516927
scalar FogNoLB.fog[63].server[0] droppedJobsQueue 11508
scalar FogNoLB.fog[63].server[0] droppedJobsTimout 0
scalar FogNoLB.fog[63].server[0] droppedJobsSLA 0
scalar FogNoLB.fog[63].server[0] droppedJobsTotal 11508
scalar FogNoLB.fog[64].dispatcher localJobs 518326
scalar FogNoLB.fog[64].dispatcher remoteJobs 0
scalar FogNoLB.fog[64].dispatcher probeQueries 0
scalar FogNoLB.fog[64].dispatcher probeAnswers 0
scalar FogNoLB.fog[64].dispatcher droppedJobsSLA 0
scalar FogNoLB.fog[64].dispatcher jobs_class_1 518326
scalar FogNoLB.fog[64].dispatcher localJobs_class_1 518326
scalar FogNoLB.fog[64].server[0] rho 0.78414040803909
scalar FogNoLB.fog[64].server[0] congestionRatio 0
scalar FogNoLB.fog[64].server[0] totalJobs 518326
scalar FogNoLB.fog[64].server[0] droppedJobsQueue 11194
scalar FogNoLB.fog[64].server[0] droppedJobsTimout 0
scalar FogNoLB.fog[64].server[0] droppedJobsSLA 0
scalar FogNoLB.fog[64].server[0] droppedJobsTotal 11194
scalar FogNoLB.fog[65].dispatcher localJobs 516582
scalar FogNoLB.fog[65].dispatcher remoteJobs 0
scalar FogNoLB.fog[65].dispatcher probeQueries 0
scalar FogNoLB.fog[65].dispatcher probeAnswers 0
scalar FogNoLB.fog[65].dispatcher droppedJobsSLA 0
scalar FogNoLB.fog[65].dispatcher jobs_class_1 516582
scalar FogNoLB.fog[65].dispatcher localJobs_class_1 516582
scalar FogNoLB.fog[65].server[0] rho 0.78168618679047
scalar FogNoLB.fog[65].server[0] congestionRatio 0
scalar FogNoLB.fog[65].server[0] totalJobs 516582
scalar FogNoLB.fog[65].server[0] droppedJobsQueue 11044
scalar FogNoLB.fog[65].server[0] droppedJobsTimout 0
scalar FogNoLB.fog[65].server[0] droppedJobsSLA 0
scalar FogNoLB.fog[65].server[0] droppedJobsTotal 11044
scalar FogNoLB.fog[66].dispatcher localJobs 516177
scalar FogNoLB.fog[66].dispatcher remoteJobs 0
scalar FogNoLB.fog[66].dispatcher probeQueries 0
scalar FogNoLB.fog[66].dispatcher probeAnswers 0
scalar FogNoLB.fog[66].dispatcher droppedJobsSLA 0
scalar FogNoLB.fog[66].dispatcher jobs_class_1 516177
scalar FogNoLB.fog[66].dispatcher localJobs_class_1 516177
scalar FogNoLB.fog[66].server[0] rho 0.78080403804779
scalar FogNoLB.fog[66].server[0] congestionRatio 0
scalar FogNoLB.fog[66].server[0] totalJobs 516177
scalar FogNoLB.fog[66].server[0] droppedJobsQueue 11252
scalar FogNoLB.fog[66].server[0] droppedJobsTimout 0
scalar FogNoLB.fog[66].server[0] droppedJobsSLA 0
scalar FogNoLB.fog[66].server[0] droppedJobsTotal 11252
scalar FogNoLB.fog[67].dispatcher localJobs 518421
scalar FogNoLB.fog[67].dispatcher remoteJobs 0
scalar FogNoLB.fog[67].dispatcher probeQueries 0
scalar FogNoLB.fog[67].dispatcher probeAnswers 0
scalar FogNoLB.fog[67].dispatcher droppedJobsSLA 0
scalar FogNoLB.fog[67].dispatcher jobs_class_1 518421
scalar FogNoLB.fog[67].dispatcher localJobs_class_1 518421
scalar FogNoLB.fog[67].server[0] rho 0.78333067893982
scalar FogNoLB.fog[67].server[0] congestionRatio 0
scalar FogNoLB.fog[67].server[0] totalJobs 518421
scalar FogNoLB.fog[67].server[0] droppedJobsQueue 11838
scalar FogNoLB.fog[67].server[0] droppedJobsTimout 0
scalar FogNoLB.fog[67].server[0] droppedJobsSLA 0
scalar FogNoLB.fog[67].server[0] droppedJobsTotal 11838
scalar FogNoLB.fog[68].dispatcher localJobs 518660
scalar FogNoLB.fog[68].dispatcher remoteJobs 0
scalar FogNoLB.fog[68].dispatcher probeQueries 0
scalar FogNoLB.fog[68].dispatcher probeAnswers 0
scalar FogNoLB.fog[68].dispatcher droppedJobsSLA 0
scalar FogNoLB.fog[68].dispatcher jobs_class_1 518660
scalar FogNoLB.fog[68].dispatcher localJobs_class_1 518660
scalar FogNoLB.fog[68].server[0] rho 0.78408533334732
scalar FogNoLB.fog[68].server[0] congestionRatio 0
scalar FogNoLB.fog[68].server[0] totalJobs 518660
scalar FogNoLB.fog[68].server[0] droppedJobsQueue 11572
scalar FogNoLB.fog[68].server[0] droppedJobsTimout 0
scalar FogNoLB.fog[68].server[0] droppedJobsSLA 0
scalar FogNoLB.fog[68].server[0] droppedJobsTotal 11572
scalar FogNoLB.fog[69].dispatcher localJobs 518074
scalar FogNoLB.fog[69].dispatcher remoteJobs 0
scalar FogNoLB.fog[69].dispatcher probeQueries 0
scalar FogNoLB.fog[69].dispatcher probeAnswers 0
scalar FogNoLB.fog[69].dispatcher droppedJobsSLA 0
scalar FogNoLB.fog[69].dispatcher jobs_class_1 518074
scalar FogNoLB.fog[69].dispatcher localJobs_class_1 518074
scalar FogNoLB.fog[69].server[0] rho 0.78378963470459
scalar FogNoLB.fog[69].server[0] congestionRatio 0
scalar FogNoLB.fog[69].server[0] totalJobs 518074
scalar FogNoLB.fog[69].server[0] droppedJobsQueue 11188
scalar FogNoLB.fog[69].server[0] droppedJobsTimout 0
scalar FogNoLB.fog[69].server[0] droppedJobsSLA 0
scalar FogNoLB.fog[69].server[0] droppedJobsTotal 11188
scalar FogNoLB.fog[70].dispatcher localJobs 517101
scalar FogNoLB.fog[70].dispatcher remoteJobs 0
scalar FogNoLB.fog[70].dispatcher probeQueries 0
scalar FogNoLB.fog[70].dispatcher probeAnswers 0
scalar FogNoLB.fog[70].dispatcher droppedJobsSLA 0
scalar FogNoLB.fog[70].dispatcher jobs_class_1 517101
scalar FogNoLB.fog[70].dispatcher localJobs_class_1 517101
scalar FogNoLB.fog[70].server[0] rho 0.78202438354492
scalar FogNoLB.fog[70].server[0] congestionRatio 0
scalar FogNoLB.fog[70].server[0] totalJobs 517101
scalar FogNoLB.fog[70].server[0] droppedJobsQueue 11362
scalar FogNoLB.fog[70].server[0] droppedJobsTimout 0
scalar FogNoLB.fog[70].server[0] droppedJobsSLA 0
scalar FogNoLB.fog[70].server[0] droppedJobsTotal 11362
scalar FogNoLB.fog[71].dispatcher localJobs 519053
scalar FogNoLB.fog[71].dispatcher remoteJobs 0
scalar FogNoLB.fog[71].dispatcher probeQueries 0
scalar FogNoLB.fog[71].dispatcher probeAnswers 0
scalar FogNoLB.fog[71].dispatcher droppedJobsSLA 0
scalar FogNoLB.fog[71].dispatcher jobs_class_1 519053
scalar FogNoLB.fog[71].dispatcher localJobs_class_1 519053
scalar FogNoLB.fog[71].server[0] rho 0.78440356254578
scalar FogNoLB.fog[71].server[0] congestionRatio 0
scalar FogNoLB.fog[71].server[0] totalJobs 519053
scalar FogNoLB.fog[71].server[0] droppedJobsQueue 11769
scalar FogNoLB.fog[71].server[0] droppedJobsTimout 0
scalar FogNoLB.fog[71].server[0] droppedJobsSLA 0
scalar FogNoLB.fog[71].server[0] droppedJobsTotal 11769
scalar FogNoLB.fog[72].dispatcher localJobs 517292
scalar FogNoLB.fog[72].dispatcher remoteJobs 0
scalar FogNoLB.fog[72].dispatcher probeQueries 0
scalar FogNoLB.fog[72].dispatcher probeAnswers 0
scalar FogNoLB.fog[72].dispatcher droppedJobsSLA 0
scalar FogNoLB.fog[72].dispatcher jobs_class_1 517292
scalar FogNoLB.fog[72].dispatcher localJobs_class_1 517292
scalar FogNoLB.fog[72].server[0] rho 0.78254151344299
scalar FogNoLB.fog[72].server[0] congestionRatio 0
scalar FogNoLB.fog[72].server[0] totalJobs 517292
scalar FogNoLB.fog[72].server[0] droppedJobsQueue 11218
scalar FogNoLB.fog[72].server[0] droppedJobsTimout 0
scalar FogNoLB.fog[72].server[0] droppedJobsSLA 0
scalar FogNoLB.fog[72].server[0] droppedJobsTotal 11218
scalar FogNoLB.fog[73].dispatcher localJobs 517713
scalar FogNoLB.fog[73].dispatcher remoteJobs 0
scalar FogNoLB.fog[73].dispatcher probeQueries 0
scalar FogNoLB.fog[73].dispatcher probeAnswers 0
scalar FogNoLB.fog[73].dispatcher droppedJobsSLA 0
scalar FogNoLB.fog[73].dispatcher jobs_class_1 517713
scalar FogNoLB.fog[73].dispatcher localJobs_class_1 517713
scalar FogNoLB.fog[73].server[0] rho 0.78262573480606
scalar FogNoLB.fog[73].server[0] congestionRatio 0
scalar FogNoLB.fog[73].server[0] totalJobs 517713
scalar FogNoLB.fog[73].server[0] droppedJobsQueue 11592
scalar FogNoLB.fog[73].server[0] droppedJobsTimout 0
scalar FogNoLB.fog[73].server[0] droppedJobsSLA 0
scalar FogNoLB.fog[73].server[0] droppedJobsTotal 11592
scalar FogNoLB.fog[74].dispatcher localJobs 517251
scalar FogNoLB.fog[74].dispatcher remoteJobs 0
scalar FogNoLB.fog[74].dispatcher probeQueries 0
scalar FogNoLB.fog[74].dispatcher probeAnswers 0
scalar FogNoLB.fog[74].dispatcher droppedJobsSLA 0
scalar FogNoLB.fog[74].dispatcher jobs_class_1 517251
scalar FogNoLB.fog[74].dispatcher localJobs_class_1 517251
scalar FogNoLB.fog[74].server[0] rho 0.78275698423386
scalar FogNoLB.fog[74].server[0] congestionRatio 0
scalar FogNoLB.fog[74].server[0] totalJobs 517251
scalar FogNoLB.fog[74].server[0] droppedJobsQueue 11023
scalar FogNoLB.fog[74].server[0] droppedJobsTimout 0
scalar FogNoLB.fog[74].server[0] droppedJobsSLA 0
scalar FogNoLB.fog[74].server[0] droppedJobsTotal 11023
scalar FogNoLB.fog[75].dispatcher localJobs 517152
scalar FogNoLB.fog[75].dispatcher remoteJobs 0
scalar FogNoLB.fog[75].dispatcher probeQueries 0
scalar FogNoLB.fog[75].dispatcher probeAnswers 0
scalar FogNoLB.fog[75].dispatcher droppedJobsSLA 0
scalar FogNoLB.fog[75].dispatcher jobs_class_1 517152
scalar FogNoLB.fog[75].dispatcher localJobs_class_1 517152
scalar FogNoLB.fog[75].server[0] rho 0.78198325634003
scalar FogNoLB.fog[75].server[0] congestionRatio 0
scalar FogNoLB.fog[75].server[0] totalJobs 517152
scalar FogNoLB.fog[75].server[0] droppedJobsQueue 11434
scalar FogNoLB.fog[75].server[0] droppedJobsTimout 0
scalar FogNoLB.fog[75].server[0] droppedJobsSLA 0
scalar FogNoLB.fog[75].server[0] droppedJobsTotal 11434
scalar FogNoLB.fog[76].dispatcher localJobs 517513
scalar FogNoLB.fog[76].dispatcher remoteJobs 0
scalar FogNoLB.fog[76].dispatcher probeQueries 0
scalar FogNoLB.fog[76].dispatcher probeAnswers 0
scalar FogNoLB.fog[76].dispatcher droppedJobsSLA 0
scalar FogNoLB.fog[76].dispatcher jobs_class_1 517513
scalar FogNoLB.fog[76].dispatcher localJobs_class_1 517513
scalar FogNoLB.fog[76].server[0] rho 0.78262025117874
scalar FogNoLB.fog[76].server[0] congestionRatio 0
scalar FogNoLB.fog[76].server[0] totalJobs 517513
scalar FogNoLB.fog[76].server[0] droppedJobsQueue 11370
scalar FogNoLB.fog[76].server[0] droppedJobsTimout 0
scalar FogNoLB.fog[76].server[0] droppedJobsSLA 0
scalar FogNoLB.fog[76].server[0] droppedJobsTotal 11370
scalar FogNoLB.fog[77].dispatcher localJobs 516304
scalar FogNoLB.fog[77].dispatcher remoteJobs 0
scalar FogNoLB.fog[77].dispatcher probeQueries 0
scalar FogNoLB.fog[77].dispatcher probeAnswers 0
scalar FogNoLB.fog[77].dispatcher droppedJobsSLA 0
scalar FogNoLB.fog[77].dispatcher jobs_class_1 516304
scalar FogNoLB.fog[77].dispatcher localJobs_class_1 516304
scalar FogNoLB.fog[77].server[0] rho 0.78089654445648
scalar FogNoLB.fog[77].server[0] congestionRatio 0
scalar FogNoLB.fog[77].server[0] totalJobs 516304
scalar FogNoLB.fog[77].server[0] droppedJobsQueue 11271
scalar FogNoLB.fog[77].server[0] droppedJobsTimout 0
scalar FogNoLB.fog[77].server[0] droppedJobsSLA 0
scalar FogNoLB.fog[77].server[0] droppedJobsTotal 11271
scalar FogNoLB.fog[78].dispatcher localJobs 517415
scalar FogNoLB.fog[78].dispatcher remoteJobs 0
scalar FogNoLB.fog[78].dispatcher probeQueries 0
scalar FogNoLB.fog[78].dispatcher probeAnswers 0
scalar FogNoLB.fog[78].dispatcher droppedJobsSLA 0
scalar FogNoLB.fog[78].dispatcher jobs_class_1 517415
scalar FogNoLB.fog[78].dispatcher localJobs_class_1 517415
scalar FogNoLB.fog[78].server[0] rho 0.78241461515427
scalar FogNoLB.fog[78].server[0] congestionRatio 0
scalar FogNoLB.fog[78].server[0] totalJobs 517415
scalar FogNoLB.fog[78].server[0] droppedJobsQueue 11423
scalar FogNoLB.fog[78].server[0] droppedJobsTimout 0
scalar FogNoLB.fog[78].server[0] droppedJobsSLA 0
scalar FogNoLB.fog[78].server[0] droppedJobsTotal 11423
scalar FogNoLB.fog[79].dispatcher localJobs 516979
scalar FogNoLB.fog[79].dispatcher remoteJobs 0
scalar FogNoLB.fog[79].dispatcher probeQueries 0
scalar FogNoLB.fog[79].dispatcher probeAnswers 0
scalar FogNoLB.fog[79].dispatcher droppedJobsSLA 0
scalar FogNoLB.fog[79].dispatcher jobs_class_1 516979
scalar FogNoLB.fog[79].dispatcher localJobs_class_1 516979
scalar FogNoLB.fog[79].server[0] rho 0.781713783741
scalar FogNoLB.fog[79].server[0] congestionRatio 0
scalar FogNoLB.fog[79].server[0] totalJobs 516979
scalar FogNoLB.fog[79].server[0] droppedJobsQueue 11436
scalar FogNoLB.fog[79].server[0] droppedJobsTimout 0
scalar FogNoLB.fog[79].server[0] droppedJobsSLA 0
scalar FogNoLB.fog[79].server[0] droppedJobsTotal 11436
scalar FogNoLB.fog[80].dispatcher localJobs 516206
scalar FogNoLB.fog[80].dispatcher remoteJobs 0
scalar FogNoLB.fog[80].dispatcher probeQueries 0
scalar FogNoLB.fog[80].dispatcher probeAnswers 0
scalar FogNoLB.fog[80].dispatcher droppedJobsSLA 0
scalar FogNoLB.fog[80].dispatcher jobs_class_1 516206
scalar FogNoLB.fog[80].dispatcher localJobs_class_1 516206
scalar FogNoLB.fog[80].server[0] rho 0.78102213144302
scalar FogNoLB.fog[80].server[0] congestionRatio 0
scalar FogNoLB.fog[80].server[0] totalJobs 516206
scalar FogNoLB.fog[80].server[0] droppedJobsQueue 11116
scalar FogNoLB.fog[80].server[0] droppedJobsTimout 0
scalar FogNoLB.fog[80].server[0] droppedJobsSLA 0
scalar FogNoLB.fog[80].server[0] droppedJobsTotal 11116
scalar FogNoLB.fog[81].dispatcher localJobs 516034
scalar FogNoLB.fog[81].dispatcher remoteJobs 0
scalar FogNoLB.fog[81].dispatcher probeQueries 0
scalar FogNoLB.fog[81].dispatcher probeAnswers 0
scalar FogNoLB.fog[81].dispatcher droppedJobsSLA 0
scalar FogNoLB.fog[81].dispatcher jobs_class_1 516034
scalar FogNoLB.fog[81].dispatcher localJobs_class_1 516034
scalar FogNoLB.fog[81].server[0] rho 0.78067737817764
scalar FogNoLB.fog[81].server[0] congestionRatio 0
scalar FogNoLB.fog[81].server[0] totalJobs 516034
scalar FogNoLB.fog[81].server[0] droppedJobsQueue 11164
scalar FogNoLB.fog[81].server[0] droppedJobsTimout 0
scalar FogNoLB.fog[81].server[0] droppedJobsSLA 0
scalar FogNoLB.fog[81].server[0] droppedJobsTotal 11164
scalar FogNoLB.fog[82].dispatcher localJobs 517265
scalar FogNoLB.fog[82].dispatcher remoteJobs 0
scalar FogNoLB.fog[82].dispatcher probeQueries 0
scalar FogNoLB.fog[82].dispatcher probeAnswers 0
scalar FogNoLB.fog[82].dispatcher droppedJobsSLA 0
scalar FogNoLB.fog[82].dispatcher jobs_class_1 517265
scalar FogNoLB.fog[82].dispatcher localJobs_class_1 517265
scalar FogNoLB.fog[82].server[0] rho 0.78186875581741
scalar FogNoLB.fog[82].server[0] congestionRatio 0
scalar FogNoLB.fog[82].server[0] totalJobs 517265
scalar FogNoLB.fog[82].server[0] droppedJobsQueue 11589
scalar FogNoLB.fog[82].server[0] droppedJobsTimout 0
scalar FogNoLB.fog[82].server[0] droppedJobsSLA 0
scalar FogNoLB.fog[82].server[0] droppedJobsTotal 11589
scalar FogNoLB.fog[83].dispatcher localJobs 518475
scalar FogNoLB.fog[83].dispatcher remoteJobs 0
scalar FogNoLB.fog[83].dispatcher probeQueries 0
scalar FogNoLB.fog[83].dispatcher probeAnswers 0
scalar FogNoLB.fog[83].dispatcher droppedJobsSLA 0
scalar FogNoLB.fog[83].dispatcher jobs_class_1 518475
scalar FogNoLB.fog[83].dispatcher localJobs_class_1 518475
scalar FogNoLB.fog[83].server[0] rho 0.78389871120453
scalar FogNoLB.fog[83].server[0] congestionRatio 0
scalar FogNoLB.fog[83].server[0] totalJobs 518475
scalar FogNoLB.fog[83].server[0] droppedJobsQueue 11505
scalar FogNoLB.fog[83].server[0] droppedJobsTimout 0
scalar FogNoLB.fog[83].server[0] droppedJobsSLA 0
scalar FogNoLB.fog[83].server[0] droppedJobsTotal 11505
scalar FogNoLB.fog[84].dispatcher localJobs 516490
scalar FogNoLB.fog[84].dispatcher remoteJobs 0
scalar FogNoLB.fog[84].dispatcher probeQueries 0
scalar FogNoLB.fog[84].dispatcher probeAnswers 0
scalar FogNoLB.fog[84].dispatcher droppedJobsSLA 0
scalar FogNoLB.fog[84].dispatcher jobs_class_1 516490
scalar FogNoLB.fog[84].dispatcher localJobs_class_1 516490
scalar FogNoLB.fog[84].server[0] rho 0.78090035915375
scalar FogNoLB.fog[84].server[0] congestionRatio 0
scalar FogNoLB.fog[84].server[0] totalJobs 516490
scalar FogNoLB.fog[84].server[0] droppedJobsQueue 11448
scalar FogNoLB.fog[84].server[0] droppedJobsTimout 0
scalar FogNoLB.fog[84].server[0] droppedJobsSLA 0
scalar FogNoLB.fog[84].server[0] droppedJobsTotal 11448
scalar FogNoLB.fog[85].dispatcher localJobs 516551
scalar FogNoLB.fog[85].dispatcher remoteJobs 0
scalar FogNoLB.fog[85].dispatcher probeQueries 0
scalar FogNoLB.fog[85].dispatcher probeAnswers 0
scalar FogNoLB.fog[85].dispatcher droppedJobsSLA 0
scalar FogNoLB.fog[85].dispatcher jobs_class_1 516551
scalar FogNoLB.fog[85].dispatcher localJobs_class_1 516551
scalar FogNoLB.fog[85].server[0] rho 0.78143286705017
scalar FogNoLB.fog[85].server[0] congestionRatio 0
scalar FogNoLB.fog[85].server[0] totalJobs 516551
scalar FogNoLB.fog[85].server[0] droppedJobsQueue 11183
scalar FogNoLB.fog[85].server[0] droppedJobsTimout 0
scalar FogNoLB.fog[85].server[0] droppedJobsSLA 0
scalar FogNoLB.fog[85].server[0] droppedJobsTotal 11183
scalar FogNoLB.fog[86].dispatcher localJobs 519097
scalar FogNoLB.fog[86].dispatcher remoteJobs 0
scalar FogNoLB.fog[86].dispatcher probeQueries 0
scalar FogNoLB.fog[86].dispatcher probeAnswers 0
scalar FogNoLB.fog[86].dispatcher droppedJobsSLA 0
scalar FogNoLB.fog[86].dispatcher jobs_class_1 519097
scalar FogNoLB.fog[86].dispatcher localJobs_class_1 519097
scalar FogNoLB.fog[86].server[0] rho 0.78444045782089
scalar FogNoLB.fog[86].server[0] congestionRatio 0
scalar FogNoLB.fog[86].server[0] totalJobs 519097
scalar FogNoLB.fog[86].server[0] droppedJobsQueue 11767
scalar FogNoLB.fog[86].server[0] droppedJobsTimout 0
scalar FogNoLB.fog[86].server[0] droppedJobsSLA 0
scalar FogNoLB.fog[86].server[0] droppedJobsTotal 11767
scalar FogNoLB.fog[87].dispatcher localJobs 518431
scalar FogNoLB.fog[87].dispatcher remoteJobs 0
scalar FogNoLB.fog[87].dispatcher probeQueries 0
scalar FogNoLB.fog[87].dispatcher probeAnswers 0
scalar FogNoLB.fog[87].dispatcher droppedJobsSLA 0
scalar FogNoLB.fog[87].dispatcher jobs_class_1 518431
scalar FogNoLB.fog[87].dispatcher localJobs_class_1 518431
scalar FogNoLB.fog[87].server[0] rho 0.78388839960098
scalar FogNoLB.fog[87].server[0] congestionRatio 0
scalar FogNoLB.fog[87].server[0] totalJobs 518431
scalar FogNoLB.fog[87].server[0] droppedJobsQueue 11508
scalar FogNoLB.fog[87].server[0] droppedJobsTimout 0
scalar FogNoLB.fog[87].server[0] droppedJobsSLA 0
scalar FogNoLB.fog[87].server[0] droppedJobsTotal 11508
scalar FogNoLB.fog[88].dispatcher localJobs 516924
scalar FogNoLB.fog[88].dispatcher remoteJobs 0
scalar FogNoLB.fog[88].dispatcher probeQueries 0
scalar FogNoLB.fog[88].dispatcher probeAnswers 0
scalar FogNoLB.fog[88].dispatcher droppedJobsSLA 0
scalar FogNoLB.fog[88].dispatcher jobs_class_1 516924
scalar FogNoLB.fog[88].dispatcher localJobs_class_1 516924
scalar FogNoLB.fog[88].server[0] rho 0.78192663192749
scalar FogNoLB.fog[88].server[0] congestionRatio 0
scalar FogNoLB.fog[88].server[0] totalJobs 516924
scalar FogNoLB.fog[88].server[0] droppedJobsQueue 11246
scalar FogNoLB.fog[88].server[0] droppedJobsTimout 0
scalar FogNoLB.fog[88].server[0] droppedJobsSLA 0
scalar FogNoLB.fog[88].server[0] droppedJobsTotal 11246
scalar FogNoLB.fog[89].dispatcher localJobs 516966
scalar FogNoLB.fog[89].dispatcher remoteJobs 0
scalar FogNoLB.fog[89].dispatcher probeQueries 0
scalar FogNoLB.fog[89].dispatcher probeAnswers 0
scalar FogNoLB.fog[89].dispatcher droppedJobsSLA 0
scalar FogNoLB.fog[89].dispatcher jobs_class_1 516966
scalar FogNoLB.fog[89].dispatcher localJobs_class_1 516966
scalar FogNoLB.fog[89].server[0] rho 0.78199523687363
scalar FogNoLB.fog[89].server[0] congestionRatio 0
scalar FogNoLB.fog[89].server[0] totalJobs 516966
scalar FogNoLB.fog[89].server[0] droppedJobsQueue 11237
scalar FogNoLB.fog[89].server[0] droppedJobsTimout 0
scalar FogNoLB.fog[89].server[0] droppedJobsSLA 0
scalar FogNoLB.fog[89].server[0] droppedJobsTotal 11237
scalar FogNoLB.fog[90].dispatcher localJobs 518970
scalar FogNoLB.fog[90].dispatcher remoteJobs 0
scalar FogNoLB.fog[90].dispatcher probeQueries 0
scalar FogNoLB.fog[90].dispatcher probeAnswers 0
scalar FogNoLB.fog[90].dispatcher droppedJobsSLA 0
scalar FogNoLB.fog[90].dispatcher jobs_class_1 518970
scalar FogNoLB.fog[90].dispatcher localJobs_class_1 518970
scalar FogNoLB.fog[90].server[0] rho 0.78436416387558
scalar FogNoLB.fog[90].server[0] congestionRatio 0
scalar FogNoLB.fog[90].server[0] totalJobs 518970
scalar FogNoLB.fog[90].server[0] droppedJobsQueue 11727
scalar FogNoLB.fog[90].server[0] droppedJobsTimout 0
scalar FogNoLB.fog[90].server[0] droppedJobsSLA 0
scalar FogNoLB.fog[90].server[0] droppedJobsTotal 11727
scalar FogNoLB.fog[91].dispatcher localJobs 517600
scalar FogNoLB.fog[91].dispatcher remoteJobs 0
scalar FogNoLB.fog[91].dispatcher probeQueries 0
scalar FogNoLB.fog[91].dispatcher probeAnswers 0
scalar FogNoLB.fog[91].dispatcher droppedJobsSLA 0
scalar FogNoLB.fog[91].dispatcher jobs_class_1 517600
scalar FogNoLB.fog[91].dispatcher localJobs_class_1 517600
scalar FogNoLB.fog[91].server[0] rho 0.78281545639038
scalar FogNoLB.fog[91].server[0] congestionRatio 0
scalar FogNoLB.fog[91].server[0] totalJobs 517600
scalar FogNoLB.fog[91].server[0] droppedJobsQueue 11339
scalar FogNoLB.fog[91].server[0] droppedJobsTimout 0
scalar FogNoLB.fog[91].server[0] droppedJobsSLA 0
scalar FogNoLB.fog[91].server[0] droppedJobsTotal 11339
scalar FogNoLB.fog[92].dispatcher localJobs 517526
scalar FogNoLB.fog[92].dispatcher remoteJobs 0
scalar FogNoLB.fog[92].dispatcher probeQueries 0
scalar FogNoLB.fog[92].dispatcher probeAnswers 0
scalar FogNoLB.fog[92].dispatcher droppedJobsSLA 0
scalar FogNoLB.fog[92].dispatcher jobs_class_1 517526
scalar FogNoLB.fog[92].dispatcher localJobs_class_1 517526
scalar FogNoLB.fog[92].server[0] rho 0.78295004367828
scalar FogNoLB.fog[92].server[0] congestionRatio 0
scalar FogNoLB.fog[92].server[0] totalJobs 517526
scalar FogNoLB.fog[92].server[0] droppedJobsQueue 11169
scalar FogNoLB.fog[92].server[0] droppedJobsTimout 0
scalar FogNoLB.fog[92].server[0] droppedJobsSLA 0
scalar FogNoLB.fog[92].server[0] droppedJobsTotal 11169
scalar FogNoLB.fog[93].dispatcher localJobs 516869
scalar FogNoLB.fog[93].dispatcher remoteJobs 0
scalar FogNoLB.fog[93].dispatcher probeQueries 0
scalar FogNoLB.fog[93].dispatcher probeAnswers 0
scalar FogNoLB.fog[93].dispatcher droppedJobsSLA 0
scalar FogNoLB.fog[93].dispatcher jobs_class_1 516869
scalar FogNoLB.fog[93].dispatcher localJobs_class_1 516869
scalar FogNoLB.fog[93].server[0] rho 0.78175759315491
scalar FogNoLB.fog[93].server[0] congestionRatio 0
scalar FogNoLB.fog[93].server[0] totalJobs 516869
scalar FogNoLB.fog[93].server[0] droppedJobsQueue 11288
scalar FogNoLB.fog[93].server[0] droppedJobsTimout 0
scalar FogNoLB.fog[93].server[0] droppedJobsSLA 0
scalar FogNoLB.fog[93].server[0] droppedJobsTotal 11288
scalar FogNoLB.fog[94].dispatcher localJobs 517911
scalar FogNoLB.fog[94].dispatcher remoteJobs 0
scalar FogNoLB.fog[94].dispatcher probeQueries 0
scalar FogNoLB.fog[94].dispatcher probeAnswers 0
scalar FogNoLB.fog[94].dispatcher droppedJobsSLA 0
scalar FogNoLB.fog[94].dispatcher jobs_class_1 517911
scalar FogNoLB.fog[94].dispatcher localJobs_class_1 517911
scalar FogNoLB.fog[94].server[0] rho 0.78285962343216
scalar FogNoLB.fog[94].server[0] congestionRatio 0
scalar FogNoLB.fog[94].server[0] totalJobs 517911
scalar FogNoLB.fog[94].server[0] droppedJobsQueue 11605
scalar FogNoLB.fog[94].server[0] droppedJobsTimout 0
scalar FogNoLB.fog[94].server[0] droppedJobsSLA 0
scalar FogNoLB.fog[94].server[0] droppedJobsTotal 11605
scalar FogNoLB.fog[95].dispatcher localJobs 517465
scalar FogNoLB.fog[95].dispatcher remoteJobs 0
scalar FogNoLB.fog[95].dispatcher probeQueries 0
scalar FogNoLB.fog[95].dispatcher probeAnswers 0
scalar FogNoLB.fog[95].dispatcher droppedJobsSLA 0
scalar FogNoLB.fog[95].dispatcher jobs_class_1 517465
scalar FogNoLB.fog[95].dispatcher localJobs_class_1 517465
scalar FogNoLB.fog[95].server[0] rho 0.78256988525391
scalar FogNoLB.fog[95].server[0] congestionRatio 0
scalar FogNoLB.fog[95].server[0] totalJobs 517465
scalar FogNoLB.fog[95].server[0] droppedJobsQueue 11370
scalar FogNoLB.fog[95].server[0] droppedJobsTimout 0
scalar FogNoLB.fog[95].server[0] droppedJobsSLA 0
scalar FogNoLB.fog[95].server[0] droppedJobsTotal 11370
scalar FogNoLB.fog[96].dispatcher localJobs 516768
scalar FogNoLB.fog[96].dispatcher remoteJobs 0
scalar FogNoLB.fog[96].dispatcher probeQueries 0
scalar FogNoLB.fog[96].dispatcher probeAnswers 0
scalar FogNoLB.fog[96].dispatcher droppedJobsSLA 0
scalar FogNoLB.fog[96].dispatcher jobs_class_1 516768
scalar FogNoLB.fog[96].dispatcher localJobs_class_1 516768
scalar FogNoLB.fog[96].server[0] rho 0.781802713871
scalar FogNoLB.fog[96].server[0] congestionRatio 0
scalar FogNoLB.fog[96].server[0] totalJobs 516768
scalar FogNoLB.fog[96].server[0] droppedJobsQueue 11164
scalar FogNoLB.fog[96].server[0] droppedJobsTimout 0
scalar FogNoLB.fog[96].server[0] droppedJobsSLA 0
scalar FogNoLB.fog[96].server[0] droppedJobsTotal 11164
scalar FogNoLB.fog[97].dispatcher localJobs 517546
scalar FogNoLB.fog[97].dispatcher remoteJobs 0
scalar FogNoLB.fog[97].dispatcher probeQueries 0
scalar FogNoLB.fog[97].dispatcher probeAnswers 0
scalar FogNoLB.fog[97].dispatcher droppedJobsSLA 0
scalar FogNoLB.fog[97].dispatcher jobs_class_1 517546
scalar FogNoLB.fog[97].dispatcher localJobs_class_1 517546
scalar FogNoLB.fog[97].server[0] rho 0.7828409075737
scalar FogNoLB.fog[97].server[0] congestionRatio 0
scalar FogNoLB.fog[97].server[0] totalJobs 517546
scalar FogNoLB.fog[97].server[0] droppedJobsQueue 11255
scalar FogNoLB.fog[97].server[0] droppedJobsTimout 0
scalar FogNoLB.fog[97].server[0] droppedJobsSLA 0
scalar FogNoLB.fog[97].server[0] droppedJobsTotal 11255
scalar FogNoLB.fog[98].dispatcher localJobs 516548
scalar FogNoLB.fog[98].dispatcher remoteJobs 0
scalar FogNoLB.fog[98].dispatcher probeQueries 0
scalar FogNoLB.fog[98].dispatcher probeAnswers 0
scalar FogNoLB.fog[98].dispatcher droppedJobsSLA 0
scalar FogNoLB.fog[98].dispatcher jobs_class_1 516548
scalar FogNoLB.fog[98].dispatcher localJobs_class_1 516548
scalar FogNoLB.fog[98].server[0] rho 0.78101074695587
scalar FogNoLB.fog[98].server[0] congestionRatio 0
scalar FogNoLB.fog[98].server[0] totalJobs 516548
scalar FogNoLB.fog[98].server[0] droppedJobsQueue 11459
scalar FogNoLB.fog[98].server[0] droppedJobsTimout 0
scalar FogNoLB.fog[98].server[0] droppedJobsSLA 0
scalar FogNoLB.fog[98].server[0] droppedJobsTotal 11459
scalar FogNoLB.fog[99].dispatcher localJobs 517343
scalar FogNoLB.fog[99].dispatcher remoteJobs 0
scalar FogNoLB.fog[99].dispatcher probeQueries 0
scalar FogNoLB.fog[99].dispatcher probeAnswers 0
scalar FogNoLB.fog[99].dispatcher droppedJobsSLA 0
scalar FogNoLB.fog[99].dispatcher jobs_class_1 517343
scalar FogNoLB.fog[99].dispatcher localJobs_class_1 517343
scalar FogNoLB.fog[99].server[0] rho 0.78295207023621
scalar FogNoLB.fog[99].server[0] congestionRatio 0
scalar FogNoLB.fog[99].server[0] totalJobs 517343
scalar FogNoLB.fog[99].server[0] droppedJobsQueue 10996
scalar FogNoLB.fog[99].server[0] droppedJobsTimout 0
scalar FogNoLB.fog[99].server[0] droppedJobsSLA 0
scalar FogNoLB.fog[99].server[0] droppedJobsTotal 10996
scalar FogNoLB.sink avg_responseTime_1 0.040185962695227
scalar FogNoLB.sink p90_responseTime_1 0.014730680087
scalar FogNoLB.sink med_responseTime_1 0.014730680087
scalar FogNoLB.sink avg_delayTime_1 0
scalar FogNoLB.sink p90_delayTime_1 0
scalar FogNoLB.sink med_delayTime_1 0
scalar FogNoLB.sink avg_queuingTime_1 0.023486052782451
scalar FogNoLB.sink p90_queuingTime_1 0
scalar FogNoLB.sink med_queuingTime_1 0
scalar FogNoLB.sink avg_serviceTime_1 0.016699909912775
scalar FogNoLB.sink p90_serviceTime_1 0.01471428783
scalar FogNoLB.sink med_serviceTime_1 0.01471428783
scalar FogNoLB.sink avg_balancerTime_1 0
scalar FogNoLB.sink p90_balancerTime_1 0
scalar FogNoLB.sink med_balancerTime_1 0
scalar FogNoLB.sink avg_balancerCount_1 1
scalar FogNoLB.sink p90_balancerCount_1 1
scalar FogNoLB.sink med_balancerCount_1 1

