version 2
run Fog-mul_001-rho_09-thr_15-2-20190711-21:59:43-59816
attr configname Fog-mul_001-rho_09-thr_15
attr datetime 20190711-21:59:43
attr experiment Fog-mul_001-rho_09-thr_15
attr inifile FogQueueLen.ini
attr iterationvars ""
attr iterationvarsf ""
attr measurement ""
attr network FogNoLB
attr processid 59816
attr repetition 2
attr replication #2
attr resultdir results
attr runnumber 2
attr seedset 2
param FogNoLB.proctimeMul 0.01
param FogNoLB.rho 0.9
param FogNoLB.fog[*].server[*].capacity 15
param FogNoLB.nSources 100
param FogNoLB.rho 0.9
param FogNoLB.proctimeMul 1.0
param FogNoLB.source[*].appId 1
param FogNoLB.fog[*].nServers 1
param FogNoLB.fog[*].dispatcher.fanOut 1
param FogNoLB.fog[*].server[*].timeSlice -1s
param FogNoLB.fog[*].server[*].capacity 5
param FogNoLB.fog[*].server[*].fifo true
param FogNoLB.fog[*].server[*].maxServiceTime -1s

scalar FogNoLB.fog[0].dispatcher localJobs 582367
scalar FogNoLB.fog[0].dispatcher remoteJobs 0
scalar FogNoLB.fog[0].dispatcher probeQueries 0
scalar FogNoLB.fog[0].dispatcher probeAnswers 0
scalar FogNoLB.fog[0].dispatcher droppedJobsSLA 0
scalar FogNoLB.fog[0].dispatcher jobs_class_1 582367
scalar FogNoLB.fog[0].dispatcher localJobs_class_1 582367
scalar FogNoLB.fog[0].server[0] rho 0.88855218887329
scalar FogNoLB.fog[0].server[0] congestionRatio 0
scalar FogNoLB.fog[0].server[0] totalJobs 582367
scalar FogNoLB.fog[0].server[0] droppedJobsQueue 519
scalar FogNoLB.fog[0].server[0] droppedJobsTimout 25064
scalar FogNoLB.fog[0].server[0] droppedJobsSLA 0
scalar FogNoLB.fog[0].server[0] droppedJobsTotal 25583
scalar FogNoLB.fog[1].dispatcher localJobs 581825
scalar FogNoLB.fog[1].dispatcher remoteJobs 0
scalar FogNoLB.fog[1].dispatcher probeQueries 0
scalar FogNoLB.fog[1].dispatcher probeAnswers 0
scalar FogNoLB.fog[1].dispatcher droppedJobsSLA 0
scalar FogNoLB.fog[1].dispatcher jobs_class_1 581825
scalar FogNoLB.fog[1].dispatcher localJobs_class_1 581825
scalar FogNoLB.fog[1].server[0] rho 0.88789892196655
scalar FogNoLB.fog[1].server[0] congestionRatio 0
scalar FogNoLB.fog[1].server[0] totalJobs 581825
scalar FogNoLB.fog[1].server[0] droppedJobsQueue 601
scalar FogNoLB.fog[1].server[0] droppedJobsTimout 24263
scalar FogNoLB.fog[1].server[0] droppedJobsSLA 0
scalar FogNoLB.fog[1].server[0] droppedJobsTotal 24864
scalar FogNoLB.fog[2].dispatcher localJobs 580031
scalar FogNoLB.fog[2].dispatcher remoteJobs 0
scalar FogNoLB.fog[2].dispatcher probeQueries 0
scalar FogNoLB.fog[2].dispatcher probeAnswers 0
scalar FogNoLB.fog[2].dispatcher droppedJobsSLA 0
scalar FogNoLB.fog[2].dispatcher jobs_class_1 580031
scalar FogNoLB.fog[2].dispatcher localJobs_class_1 580031
scalar FogNoLB.fog[2].server[0] rho 0.88547426462173
scalar FogNoLB.fog[2].server[0] congestionRatio 0
scalar FogNoLB.fog[2].server[0] totalJobs 580031
scalar FogNoLB.fog[2].server[0] droppedJobsQueue 561
scalar FogNoLB.fog[2].server[0] droppedJobsTimout 23852
scalar FogNoLB.fog[2].server[0] droppedJobsSLA 0
scalar FogNoLB.fog[2].server[0] droppedJobsTotal 24413
scalar FogNoLB.fog[3].dispatcher localJobs 582179
scalar FogNoLB.fog[3].dispatcher remoteJobs 0
scalar FogNoLB.fog[3].dispatcher probeQueries 0
scalar FogNoLB.fog[3].dispatcher probeAnswers 0
scalar FogNoLB.fog[3].dispatcher droppedJobsSLA 0
scalar FogNoLB.fog[3].dispatcher jobs_class_1 582179
scalar FogNoLB.fog[3].dispatcher localJobs_class_1 582179
scalar FogNoLB.fog[3].server[0] rho 0.88775491714478
scalar FogNoLB.fog[3].server[0] congestionRatio 0
scalar FogNoLB.fog[3].server[0] totalJobs 582179
scalar FogNoLB.fog[3].server[0] droppedJobsQueue 644
scalar FogNoLB.fog[3].server[0] droppedJobsTimout 25458
scalar FogNoLB.fog[3].server[0] droppedJobsSLA 0
scalar FogNoLB.fog[3].server[0] droppedJobsTotal 26102
scalar FogNoLB.fog[4].dispatcher localJobs 581270
scalar FogNoLB.fog[4].dispatcher remoteJobs 0
scalar FogNoLB.fog[4].dispatcher probeQueries 0
scalar FogNoLB.fog[4].dispatcher probeAnswers 0
scalar FogNoLB.fog[4].dispatcher droppedJobsSLA 0
scalar FogNoLB.fog[4].dispatcher jobs_class_1 581270
scalar FogNoLB.fog[4].dispatcher localJobs_class_1 581270
scalar FogNoLB.fog[4].server[0] rho 0.88688033819199
scalar FogNoLB.fog[4].server[0] congestionRatio 0
scalar FogNoLB.fog[4].server[0] totalJobs 581270
scalar FogNoLB.fog[4].server[0] droppedJobsQueue 524
scalar FogNoLB.fog[4].server[0] droppedJobsTimout 24721
scalar FogNoLB.fog[4].server[0] droppedJobsSLA 0
scalar FogNoLB.fog[4].server[0] droppedJobsTotal 25245
scalar FogNoLB.fog[5].dispatcher localJobs 582846
scalar FogNoLB.fog[5].dispatcher remoteJobs 0
scalar FogNoLB.fog[5].dispatcher probeQueries 0
scalar FogNoLB.fog[5].dispatcher probeAnswers 0
scalar FogNoLB.fog[5].dispatcher droppedJobsSLA 0
scalar FogNoLB.fog[5].dispatcher jobs_class_1 582846
scalar FogNoLB.fog[5].dispatcher localJobs_class_1 582846
scalar FogNoLB.fog[5].server[0] rho 0.88946282863617
scalar FogNoLB.fog[5].server[0] congestionRatio 0
scalar FogNoLB.fog[5].server[0] totalJobs 582846
scalar FogNoLB.fog[5].server[0] droppedJobsQueue 567
scalar FogNoLB.fog[5].server[0] droppedJobsTimout 24272
scalar FogNoLB.fog[5].server[0] droppedJobsSLA 0
scalar FogNoLB.fog[5].server[0] droppedJobsTotal 24839
scalar FogNoLB.fog[6].dispatcher localJobs 583778
scalar FogNoLB.fog[6].dispatcher remoteJobs 0
scalar FogNoLB.fog[6].dispatcher probeQueries 0
scalar FogNoLB.fog[6].dispatcher probeAnswers 0
scalar FogNoLB.fog[6].dispatcher droppedJobsSLA 0
scalar FogNoLB.fog[6].dispatcher jobs_class_1 583778
scalar FogNoLB.fog[6].dispatcher localJobs_class_1 583778
scalar FogNoLB.fog[6].server[0] rho 0.89050990343094
scalar FogNoLB.fog[6].server[0] congestionRatio 0
scalar FogNoLB.fog[6].server[0] totalJobs 583778
scalar FogNoLB.fog[6].server[0] droppedJobsQueue 522
scalar FogNoLB.fog[6].server[0] droppedJobsTimout 25555
scalar FogNoLB.fog[6].server[0] droppedJobsSLA 0
scalar FogNoLB.fog[6].server[0] droppedJobsTotal 26077
scalar FogNoLB.fog[7].dispatcher localJobs 581588
scalar FogNoLB.fog[7].dispatcher remoteJobs 0
scalar FogNoLB.fog[7].dispatcher probeQueries 0
scalar FogNoLB.fog[7].dispatcher probeAnswers 0
scalar FogNoLB.fog[7].dispatcher droppedJobsSLA 0
scalar FogNoLB.fog[7].dispatcher jobs_class_1 581588
scalar FogNoLB.fog[7].dispatcher localJobs_class_1 581588
scalar FogNoLB.fog[7].server[0] rho 0.88753640651703
scalar FogNoLB.fog[7].server[0] congestionRatio 0
scalar FogNoLB.fog[7].server[0] totalJobs 581588
scalar FogNoLB.fog[7].server[0] droppedJobsQueue 586
scalar FogNoLB.fog[7].server[0] droppedJobsTimout 24148
scalar FogNoLB.fog[7].server[0] droppedJobsSLA 0
scalar FogNoLB.fog[7].server[0] droppedJobsTotal 24734
scalar FogNoLB.fog[8].dispatcher localJobs 582336
scalar FogNoLB.fog[8].dispatcher remoteJobs 0
scalar FogNoLB.fog[8].dispatcher probeQueries 0
scalar FogNoLB.fog[8].dispatcher probeAnswers 0
scalar FogNoLB.fog[8].dispatcher droppedJobsSLA 0
scalar FogNoLB.fog[8].dispatcher jobs_class_1 582336
scalar FogNoLB.fog[8].dispatcher localJobs_class_1 582336
scalar FogNoLB.fog[8].server[0] rho 0.88881307840347
scalar FogNoLB.fog[8].server[0] congestionRatio 0
scalar FogNoLB.fog[8].server[0] totalJobs 582336
scalar FogNoLB.fog[8].server[0] droppedJobsQueue 552
scalar FogNoLB.fog[8].server[0] droppedJobsTimout 24561
scalar FogNoLB.fog[8].server[0] droppedJobsSLA 0
scalar FogNoLB.fog[8].server[0] droppedJobsTotal 25113
scalar FogNoLB.fog[9].dispatcher localJobs 581649
scalar FogNoLB.fog[9].dispatcher remoteJobs 0
scalar FogNoLB.fog[9].dispatcher probeQueries 0
scalar FogNoLB.fog[9].dispatcher probeAnswers 0
scalar FogNoLB.fog[9].dispatcher droppedJobsSLA 0
scalar FogNoLB.fog[9].dispatcher jobs_class_1 581649
scalar FogNoLB.fog[9].dispatcher localJobs_class_1 581649
scalar FogNoLB.fog[9].server[0] rho 0.88782447576523
scalar FogNoLB.fog[9].server[0] congestionRatio 0
scalar FogNoLB.fog[9].server[0] totalJobs 581649
scalar FogNoLB.fog[9].server[0] droppedJobsQueue 522
scalar FogNoLB.fog[9].server[0] droppedJobsTimout 24614
scalar FogNoLB.fog[9].server[0] droppedJobsSLA 0
scalar FogNoLB.fog[9].server[0] droppedJobsTotal 25136
scalar FogNoLB.fog[10].dispatcher localJobs 581660
scalar FogNoLB.fog[10].dispatcher remoteJobs 0
scalar FogNoLB.fog[10].dispatcher probeQueries 0
scalar FogNoLB.fog[10].dispatcher probeAnswers 0
scalar FogNoLB.fog[10].dispatcher droppedJobsSLA 0
scalar FogNoLB.fog[10].dispatcher jobs_class_1 581660
scalar FogNoLB.fog[10].dispatcher localJobs_class_1 581660
scalar FogNoLB.fog[10].server[0] rho 0.88782459497452
scalar FogNoLB.fog[10].server[0] congestionRatio 0
scalar FogNoLB.fog[10].server[0] totalJobs 581660
scalar FogNoLB.fog[10].server[0] droppedJobsQueue 552
scalar FogNoLB.fog[10].server[0] droppedJobsTimout 24395
scalar FogNoLB.fog[10].server[0] droppedJobsSLA 0
scalar FogNoLB.fog[10].server[0] droppedJobsTotal 24947
scalar FogNoLB.fog[11].dispatcher localJobs 581663
scalar FogNoLB.fog[11].dispatcher remoteJobs 0
scalar FogNoLB.fog[11].dispatcher probeQueries 0
scalar FogNoLB.fog[11].dispatcher probeAnswers 0
scalar FogNoLB.fog[11].dispatcher droppedJobsSLA 0
scalar FogNoLB.fog[11].dispatcher jobs_class_1 581663
scalar FogNoLB.fog[11].dispatcher localJobs_class_1 581663
scalar FogNoLB.fog[11].server[0] rho 0.88719707727432
scalar FogNoLB.fog[11].server[0] congestionRatio 0
scalar FogNoLB.fog[11].server[0] totalJobs 581663
scalar FogNoLB.fog[11].server[0] droppedJobsQueue 645
scalar FogNoLB.fog[11].server[0] droppedJobsTimout 25141
scalar FogNoLB.fog[11].server[0] droppedJobsSLA 0
scalar FogNoLB.fog[11].server[0] droppedJobsTotal 25786
scalar FogNoLB.fog[12].dispatcher localJobs 581953
scalar FogNoLB.fog[12].dispatcher remoteJobs 0
scalar FogNoLB.fog[12].dispatcher probeQueries 0
scalar FogNoLB.fog[12].dispatcher probeAnswers 0
scalar FogNoLB.fog[12].dispatcher droppedJobsSLA 0
scalar FogNoLB.fog[12].dispatcher jobs_class_1 581953
scalar FogNoLB.fog[12].dispatcher localJobs_class_1 581953
scalar FogNoLB.fog[12].server[0] rho 0.88822203874588
scalar FogNoLB.fog[12].server[0] congestionRatio 0
scalar FogNoLB.fog[12].server[0] totalJobs 581953
scalar FogNoLB.fog[12].server[0] droppedJobsQueue 570
scalar FogNoLB.fog[12].server[0] droppedJobsTimout 24246
scalar FogNoLB.fog[12].server[0] droppedJobsSLA 0
scalar FogNoLB.fog[12].server[0] droppedJobsTotal 24816
scalar FogNoLB.fog[13].dispatcher localJobs 582387
scalar FogNoLB.fog[13].dispatcher remoteJobs 0
scalar FogNoLB.fog[13].dispatcher probeQueries 0
scalar FogNoLB.fog[13].dispatcher probeAnswers 0
scalar FogNoLB.fog[13].dispatcher droppedJobsSLA 0
scalar FogNoLB.fog[13].dispatcher jobs_class_1 582387
scalar FogNoLB.fog[13].dispatcher localJobs_class_1 582387
scalar FogNoLB.fog[13].server[0] rho 0.88848376274109
scalar FogNoLB.fog[13].server[0] congestionRatio 0
scalar FogNoLB.fog[13].server[0] totalJobs 582387
scalar FogNoLB.fog[13].server[0] droppedJobsQueue 599
scalar FogNoLB.fog[13].server[0] droppedJobsTimout 24814
scalar FogNoLB.fog[13].server[0] droppedJobsSLA 0
scalar FogNoLB.fog[13].server[0] droppedJobsTotal 25413
scalar FogNoLB.fog[14].dispatcher localJobs 583122
scalar FogNoLB.fog[14].dispatcher remoteJobs 0
scalar FogNoLB.fog[14].dispatcher probeQueries 0
scalar FogNoLB.fog[14].dispatcher probeAnswers 0
scalar FogNoLB.fog[14].dispatcher droppedJobsSLA 0
scalar FogNoLB.fog[14].dispatcher jobs_class_1 583122
scalar FogNoLB.fog[14].dispatcher localJobs_class_1 583122
scalar FogNoLB.fog[14].server[0] rho 0.88936913013458
scalar FogNoLB.fog[14].server[0] congestionRatio 0
scalar FogNoLB.fog[14].server[0] totalJobs 583122
scalar FogNoLB.fog[14].server[0] droppedJobsQueue 577
scalar FogNoLB.fog[14].server[0] droppedJobsTimout 25520
scalar FogNoLB.fog[14].server[0] droppedJobsSLA 0
scalar FogNoLB.fog[14].server[0] droppedJobsTotal 26097
scalar FogNoLB.fog[15].dispatcher localJobs 580604
scalar FogNoLB.fog[15].dispatcher remoteJobs 0
scalar FogNoLB.fog[15].dispatcher probeQueries 0
scalar FogNoLB.fog[15].dispatcher probeAnswers 0
scalar FogNoLB.fog[15].dispatcher droppedJobsSLA 0
scalar FogNoLB.fog[15].dispatcher jobs_class_1 580604
scalar FogNoLB.fog[15].dispatcher localJobs_class_1 580604
scalar FogNoLB.fog[15].server[0] rho 0.88631188869476
scalar FogNoLB.fog[15].server[0] congestionRatio 0
scalar FogNoLB.fog[15].server[0] totalJobs 580604
scalar FogNoLB.fog[15].server[0] droppedJobsQueue 520
scalar FogNoLB.fog[15].server[0] droppedJobsTimout 23850
scalar FogNoLB.fog[15].server[0] droppedJobsSLA 0
scalar FogNoLB.fog[15].server[0] droppedJobsTotal 24370
scalar FogNoLB.fog[16].dispatcher localJobs 583129
scalar FogNoLB.fog[16].dispatcher remoteJobs 0
scalar FogNoLB.fog[16].dispatcher probeQueries 0
scalar FogNoLB.fog[16].dispatcher probeAnswers 0
scalar FogNoLB.fog[16].dispatcher droppedJobsSLA 0
scalar FogNoLB.fog[16].dispatcher jobs_class_1 583129
scalar FogNoLB.fog[16].dispatcher localJobs_class_1 583129
scalar FogNoLB.fog[16].server[0] rho 0.88918477296829
scalar FogNoLB.fog[16].server[0] congestionRatio 0
scalar FogNoLB.fog[16].server[0] totalJobs 583129
scalar FogNoLB.fog[16].server[0] droppedJobsQueue 565
scalar FogNoLB.fog[16].server[0] droppedJobsTimout 26105
scalar FogNoLB.fog[16].server[0] droppedJobsSLA 0
scalar FogNoLB.fog[16].server[0] droppedJobsTotal 26670
scalar FogNoLB.fog[17].dispatcher localJobs 581809
scalar FogNoLB.fog[17].dispatcher remoteJobs 0
scalar FogNoLB.fog[17].dispatcher probeQueries 0
scalar FogNoLB.fog[17].dispatcher probeAnswers 0
scalar FogNoLB.fog[17].dispatcher droppedJobsSLA 0
scalar FogNoLB.fog[17].dispatcher jobs_class_1 581809
scalar FogNoLB.fog[17].dispatcher localJobs_class_1 581809
scalar FogNoLB.fog[17].server[0] rho 0.88785070180893
scalar FogNoLB.fog[17].server[0] congestionRatio 0
scalar FogNoLB.fog[17].server[0] totalJobs 581809
scalar FogNoLB.fog[17].server[0] droppedJobsQueue 590
scalar FogNoLB.fog[17].server[0] droppedJobsTimout 24492
scalar FogNoLB.fog[17].server[0] droppedJobsSLA 0
scalar FogNoLB.fog[17].server[0] droppedJobsTotal 25082
scalar FogNoLB.fog[18].dispatcher localJobs 581924
scalar FogNoLB.fog[18].dispatcher remoteJobs 0
scalar FogNoLB.fog[18].dispatcher probeQueries 0
scalar FogNoLB.fog[18].dispatcher probeAnswers 0
scalar FogNoLB.fog[18].dispatcher droppedJobsSLA 0
scalar FogNoLB.fog[18].dispatcher jobs_class_1 581924
scalar FogNoLB.fog[18].dispatcher localJobs_class_1 581924
scalar FogNoLB.fog[18].server[0] rho 0.88763689994812
scalar FogNoLB.fog[18].server[0] congestionRatio 0
scalar FogNoLB.fog[18].server[0] totalJobs 581924
scalar FogNoLB.fog[18].server[0] droppedJobsQueue 590
scalar FogNoLB.fog[18].server[0] droppedJobsTimout 25100
scalar FogNoLB.fog[18].server[0] droppedJobsSLA 0
scalar FogNoLB.fog[18].server[0] droppedJobsTotal 25690
scalar FogNoLB.fog[19].dispatcher localJobs 582196
scalar FogNoLB.fog[19].dispatcher remoteJobs 0
scalar FogNoLB.fog[19].dispatcher probeQueries 0
scalar FogNoLB.fog[19].dispatcher probeAnswers 0
scalar FogNoLB.fog[19].dispatcher droppedJobsSLA 0
scalar FogNoLB.fog[19].dispatcher jobs_class_1 582196
scalar FogNoLB.fog[19].dispatcher localJobs_class_1 582196
scalar FogNoLB.fog[19].server[0] rho 0.88831257820129
scalar FogNoLB.fog[19].server[0] congestionRatio 0
scalar FogNoLB.fog[19].server[0] totalJobs 582196
scalar FogNoLB.fog[19].server[0] droppedJobsQueue 560
scalar FogNoLB.fog[19].server[0] droppedJobsTimout 25022
scalar FogNoLB.fog[19].server[0] droppedJobsSLA 0
scalar FogNoLB.fog[19].server[0] droppedJobsTotal 25582
scalar FogNoLB.fog[20].dispatcher localJobs 583128
scalar FogNoLB.fog[20].dispatcher remoteJobs 0
scalar FogNoLB.fog[20].dispatcher probeQueries 0
scalar FogNoLB.fog[20].dispatcher probeAnswers 0
scalar FogNoLB.fog[20].dispatcher droppedJobsSLA 0
scalar FogNoLB.fog[20].dispatcher jobs_class_1 583128
scalar FogNoLB.fog[20].dispatcher localJobs_class_1 583128
scalar FogNoLB.fog[20].server[0] rho 0.88978159427643
scalar FogNoLB.fog[20].server[0] congestionRatio 0
scalar FogNoLB.fog[20].server[0] totalJobs 583128
scalar FogNoLB.fog[20].server[0] droppedJobsQueue 537
scalar FogNoLB.fog[20].server[0] droppedJobsTimout 24747
scalar FogNoLB.fog[20].server[0] droppedJobsSLA 0
scalar FogNoLB.fog[20].server[0] droppedJobsTotal 25284
scalar FogNoLB.fog[21].dispatcher localJobs 583820
scalar FogNoLB.fog[21].dispatcher remoteJobs 0
scalar FogNoLB.fog[21].dispatcher probeQueries 0
scalar FogNoLB.fog[21].dispatcher probeAnswers 0
scalar FogNoLB.fog[21].dispatcher droppedJobsSLA 0
scalar FogNoLB.fog[21].dispatcher jobs_class_1 583820
scalar FogNoLB.fog[21].dispatcher localJobs_class_1 583820
scalar FogNoLB.fog[21].server[0] rho 0.8905366063118
scalar FogNoLB.fog[21].server[0] congestionRatio 0
scalar FogNoLB.fog[21].server[0] totalJobs 583820
scalar FogNoLB.fog[21].server[0] droppedJobsQueue 494
scalar FogNoLB.fog[21].server[0] droppedJobsTimout 25627
scalar FogNoLB.fog[21].server[0] droppedJobsSLA 0
scalar FogNoLB.fog[21].server[0] droppedJobsTotal 26121
scalar FogNoLB.fog[22].dispatcher localJobs 583004
scalar FogNoLB.fog[22].dispatcher remoteJobs 0
scalar FogNoLB.fog[22].dispatcher probeQueries 0
scalar FogNoLB.fog[22].dispatcher probeAnswers 0
scalar FogNoLB.fog[22].dispatcher droppedJobsSLA 0
scalar FogNoLB.fog[22].dispatcher jobs_class_1 583004
scalar FogNoLB.fog[22].dispatcher localJobs_class_1 583004
scalar FogNoLB.fog[22].server[0] rho 0.88944005966187
scalar FogNoLB.fog[22].server[0] congestionRatio 0
scalar FogNoLB.fog[22].server[0] totalJobs 583004
scalar FogNoLB.fog[22].server[0] droppedJobsQueue 551
scalar FogNoLB.fog[22].server[0] droppedJobsTimout 24877
scalar FogNoLB.fog[22].server[0] droppedJobsSLA 0
scalar FogNoLB.fog[22].server[0] droppedJobsTotal 25428
scalar FogNoLB.fog[23].dispatcher localJobs 582080
scalar FogNoLB.fog[23].dispatcher remoteJobs 0
scalar FogNoLB.fog[23].dispatcher probeQueries 0
scalar FogNoLB.fog[23].dispatcher probeAnswers 0
scalar FogNoLB.fog[23].dispatcher droppedJobsSLA 0
scalar FogNoLB.fog[23].dispatcher jobs_class_1 582080
scalar FogNoLB.fog[23].dispatcher localJobs_class_1 582080
scalar FogNoLB.fog[23].server[0] rho 0.88828110694885
scalar FogNoLB.fog[23].server[0] congestionRatio 0
scalar FogNoLB.fog[23].server[0] totalJobs 582080
scalar FogNoLB.fog[23].server[0] droppedJobsQueue 552
scalar FogNoLB.fog[23].server[0] droppedJobsTimout 24599
scalar FogNoLB.fog[23].server[0] droppedJobsSLA 0
scalar FogNoLB.fog[23].server[0] droppedJobsTotal 25151
scalar FogNoLB.fog[24].dispatcher localJobs 581831
scalar FogNoLB.fog[24].dispatcher remoteJobs 0
scalar FogNoLB.fog[24].dispatcher probeQueries 0
scalar FogNoLB.fog[24].dispatcher probeAnswers 0
scalar FogNoLB.fog[24].dispatcher droppedJobsSLA 0
scalar FogNoLB.fog[24].dispatcher jobs_class_1 581831
scalar FogNoLB.fog[24].dispatcher localJobs_class_1 581831
scalar FogNoLB.fog[24].server[0] rho 0.88789230585098
scalar FogNoLB.fog[24].server[0] congestionRatio 0
scalar FogNoLB.fog[24].server[0] totalJobs 581831
scalar FogNoLB.fog[24].server[0] droppedJobsQueue 546
scalar FogNoLB.fog[24].server[0] droppedJobsTimout 24061
scalar FogNoLB.fog[24].server[0] droppedJobsSLA 0
scalar FogNoLB.fog[24].server[0] droppedJobsTotal 24607
scalar FogNoLB.fog[25].dispatcher localJobs 581606
scalar FogNoLB.fog[25].dispatcher remoteJobs 0
scalar FogNoLB.fog[25].dispatcher probeQueries 0
scalar FogNoLB.fog[25].dispatcher probeAnswers 0
scalar FogNoLB.fog[25].dispatcher droppedJobsSLA 0
scalar FogNoLB.fog[25].dispatcher jobs_class_1 581606
scalar FogNoLB.fog[25].dispatcher localJobs_class_1 581606
scalar FogNoLB.fog[25].server[0] rho 0.88739198446274
scalar FogNoLB.fog[25].server[0] congestionRatio 0
scalar FogNoLB.fog[25].server[0] totalJobs 581606
scalar FogNoLB.fog[25].server[0] droppedJobsQueue 569
scalar FogNoLB.fog[25].server[0] droppedJobsTimout 24638
scalar FogNoLB.fog[25].server[0] droppedJobsSLA 0
scalar FogNoLB.fog[25].server[0] droppedJobsTotal 25207
scalar FogNoLB.fog[26].dispatcher localJobs 582554
scalar FogNoLB.fog[26].dispatcher remoteJobs 0
scalar FogNoLB.fog[26].dispatcher probeQueries 0
scalar FogNoLB.fog[26].dispatcher probeAnswers 0
scalar FogNoLB.fog[26].dispatcher droppedJobsSLA 0
scalar FogNoLB.fog[26].dispatcher jobs_class_1 582554
scalar FogNoLB.fog[26].dispatcher localJobs_class_1 582554
scalar FogNoLB.fog[26].server[0] rho 0.8887146115303
scalar FogNoLB.fog[26].server[0] congestionRatio 0
scalar FogNoLB.fog[26].server[0] totalJobs 582554
scalar FogNoLB.fog[26].server[0] droppedJobsQueue 529
scalar FogNoLB.fog[26].server[0] droppedJobsTimout 25352
scalar FogNoLB.fog[26].server[0] droppedJobsSLA 0
scalar FogNoLB.fog[26].server[0] droppedJobsTotal 25881
scalar FogNoLB.fog[27].dispatcher localJobs 581492
scalar FogNoLB.fog[27].dispatcher remoteJobs 0
scalar FogNoLB.fog[27].dispatcher probeQueries 0
scalar FogNoLB.fog[27].dispatcher probeAnswers 0
scalar FogNoLB.fog[27].dispatcher droppedJobsSLA 0
scalar FogNoLB.fog[27].dispatcher jobs_class_1 581492
scalar FogNoLB.fog[27].dispatcher localJobs_class_1 581492
scalar FogNoLB.fog[27].server[0] rho 0.88682097196579
scalar FogNoLB.fog[27].server[0] congestionRatio 0
scalar FogNoLB.fog[27].server[0] totalJobs 581492
scalar FogNoLB.fog[27].server[0] droppedJobsQueue 590
scalar FogNoLB.fog[27].server[0] droppedJobsTimout 25424
scalar FogNoLB.fog[27].server[0] droppedJobsSLA 0
scalar FogNoLB.fog[27].server[0] droppedJobsTotal 26014
scalar FogNoLB.fog[28].dispatcher localJobs 581954
scalar FogNoLB.fog[28].dispatcher remoteJobs 0
scalar FogNoLB.fog[28].dispatcher probeQueries 0
scalar FogNoLB.fog[28].dispatcher probeAnswers 0
scalar FogNoLB.fog[28].dispatcher droppedJobsSLA 0
scalar FogNoLB.fog[28].dispatcher jobs_class_1 581954
scalar FogNoLB.fog[28].dispatcher localJobs_class_1 581954
scalar FogNoLB.fog[28].server[0] rho 0.88809925317764
scalar FogNoLB.fog[28].server[0] congestionRatio 0
scalar FogNoLB.fog[28].server[0] totalJobs 581954
scalar FogNoLB.fog[28].server[0] droppedJobsQueue 550
scalar FogNoLB.fog[28].server[0] droppedJobsTimout 24732
scalar FogNoLB.fog[28].server[0] droppedJobsSLA 0
scalar FogNoLB.fog[28].server[0] droppedJobsTotal 25282
scalar FogNoLB.fog[29].dispatcher localJobs 582043
scalar FogNoLB.fog[29].dispatcher remoteJobs 0
scalar FogNoLB.fog[29].dispatcher probeQueries 0
scalar FogNoLB.fog[29].dispatcher probeAnswers 0
scalar FogNoLB.fog[29].dispatcher droppedJobsSLA 0
scalar FogNoLB.fog[29].dispatcher jobs_class_1 582043
scalar FogNoLB.fog[29].dispatcher localJobs_class_1 582043
scalar FogNoLB.fog[29].server[0] rho 0.88786959648132
scalar FogNoLB.fog[29].server[0] congestionRatio 0
scalar FogNoLB.fog[29].server[0] totalJobs 582043
scalar FogNoLB.fog[29].server[0] droppedJobsQueue 543
scalar FogNoLB.fog[29].server[0] droppedJobsTimout 25328
scalar FogNoLB.fog[29].server[0] droppedJobsSLA 0
scalar FogNoLB.fog[29].server[0] droppedJobsTotal 25871
scalar FogNoLB.fog[30].dispatcher localJobs 582426
scalar FogNoLB.fog[30].dispatcher remoteJobs 0
scalar FogNoLB.fog[30].dispatcher probeQueries 0
scalar FogNoLB.fog[30].dispatcher probeAnswers 0
scalar FogNoLB.fog[30].dispatcher droppedJobsSLA 0
scalar FogNoLB.fog[30].dispatcher jobs_class_1 582426
scalar FogNoLB.fog[30].dispatcher localJobs_class_1 582426
scalar FogNoLB.fog[30].server[0] rho 0.88860338926315
scalar FogNoLB.fog[30].server[0] congestionRatio 0
scalar FogNoLB.fog[30].server[0] totalJobs 582426
scalar FogNoLB.fog[30].server[0] droppedJobsQueue 600
scalar FogNoLB.fog[30].server[0] droppedJobsTimout 24750
scalar FogNoLB.fog[30].server[0] droppedJobsSLA 0
scalar FogNoLB.fog[30].server[0] droppedJobsTotal 25350
scalar FogNoLB.fog[31].dispatcher localJobs 582689
scalar FogNoLB.fog[31].dispatcher remoteJobs 0
scalar FogNoLB.fog[31].dispatcher probeQueries 0
scalar FogNoLB.fog[31].dispatcher probeAnswers 0
scalar FogNoLB.fog[31].dispatcher droppedJobsSLA 0
scalar FogNoLB.fog[31].dispatcher jobs_class_1 582689
scalar FogNoLB.fog[31].dispatcher localJobs_class_1 582689
scalar FogNoLB.fog[31].server[0] rho 0.88899552822113
scalar FogNoLB.fog[31].server[0] congestionRatio 0
scalar FogNoLB.fog[31].server[0] totalJobs 582689
scalar FogNoLB.fog[31].server[0] droppedJobsQueue 568
scalar FogNoLB.fog[31].server[0] droppedJobsTimout 25096
scalar FogNoLB.fog[31].server[0] droppedJobsSLA 0
scalar FogNoLB.fog[31].server[0] droppedJobsTotal 25664
scalar FogNoLB.fog[32].dispatcher localJobs 581948
scalar FogNoLB.fog[32].dispatcher remoteJobs 0
scalar FogNoLB.fog[32].dispatcher probeQueries 0
scalar FogNoLB.fog[32].dispatcher probeAnswers 0
scalar FogNoLB.fog[32].dispatcher droppedJobsSLA 0
scalar FogNoLB.fog[32].dispatcher jobs_class_1 581948
scalar FogNoLB.fog[32].dispatcher localJobs_class_1 581948
scalar FogNoLB.fog[32].server[0] rho 0.88813948631287
scalar FogNoLB.fog[32].server[0] congestionRatio 0
scalar FogNoLB.fog[32].server[0] totalJobs 581948
scalar FogNoLB.fog[32].server[0] droppedJobsQueue 600
scalar FogNoLB.fog[32].server[0] droppedJobsTimout 23860
scalar FogNoLB.fog[32].server[0] droppedJobsSLA 0
scalar FogNoLB.fog[32].server[0] droppedJobsTotal 24460
scalar FogNoLB.fog[33].dispatcher localJobs 583311
scalar FogNoLB.fog[33].dispatcher remoteJobs 0
scalar FogNoLB.fog[33].dispatcher probeQueries 0
scalar FogNoLB.fog[33].dispatcher probeAnswers 0
scalar FogNoLB.fog[33].dispatcher droppedJobsSLA 0
scalar FogNoLB.fog[33].dispatcher jobs_class_1 583311
scalar FogNoLB.fog[33].dispatcher localJobs_class_1 583311
scalar FogNoLB.fog[33].server[0] rho 0.88924998044968
scalar FogNoLB.fog[33].server[0] congestionRatio 0
scalar FogNoLB.fog[33].server[0] totalJobs 583311
scalar FogNoLB.fog[33].server[0] droppedJobsQueue 616
scalar FogNoLB.fog[33].server[0] droppedJobsTimout 25865
scalar FogNoLB.fog[33].server[0] droppedJobsSLA 0
scalar FogNoLB.fog[33].server[0] droppedJobsTotal 26481
scalar FogNoLB.fog[34].dispatcher localJobs 581597
scalar FogNoLB.fog[34].dispatcher remoteJobs 0
scalar FogNoLB.fog[34].dispatcher probeQueries 0
scalar FogNoLB.fog[34].dispatcher probeAnswers 0
scalar FogNoLB.fog[34].dispatcher droppedJobsSLA 0
scalar FogNoLB.fog[34].dispatcher jobs_class_1 581597
scalar FogNoLB.fog[34].dispatcher localJobs_class_1 581597
scalar FogNoLB.fog[34].server[0] rho 0.8877494931221
scalar FogNoLB.fog[34].server[0] congestionRatio 0
scalar FogNoLB.fog[34].server[0] totalJobs 581597
scalar FogNoLB.fog[34].server[0] droppedJobsQueue 600
scalar FogNoLB.fog[34].server[0] droppedJobsTimout 24024
scalar FogNoLB.fog[34].server[0] droppedJobsSLA 0
scalar FogNoLB.fog[34].server[0] droppedJobsTotal 24624
scalar FogNoLB.fog[35].dispatcher localJobs 582985
scalar FogNoLB.fog[35].dispatcher remoteJobs 0
scalar FogNoLB.fog[35].dispatcher probeQueries 0
scalar FogNoLB.fog[35].dispatcher probeAnswers 0
scalar FogNoLB.fog[35].dispatcher droppedJobsSLA 0
scalar FogNoLB.fog[35].dispatcher jobs_class_1 582985
scalar FogNoLB.fog[35].dispatcher localJobs_class_1 582985
scalar FogNoLB.fog[35].server[0] rho 0.88886481523514
scalar FogNoLB.fog[35].server[0] congestionRatio 0
scalar FogNoLB.fog[35].server[0] totalJobs 582985
scalar FogNoLB.fog[35].server[0] droppedJobsQueue 610
scalar FogNoLB.fog[35].server[0] droppedJobsTimout 25703
scalar FogNoLB.fog[35].server[0] droppedJobsSLA 0
scalar FogNoLB.fog[35].server[0] droppedJobsTotal 26313
scalar FogNoLB.fog[36].dispatcher localJobs 582293
scalar FogNoLB.fog[36].dispatcher remoteJobs 0
scalar FogNoLB.fog[36].dispatcher probeQueries 0
scalar FogNoLB.fog[36].dispatcher probeAnswers 0
scalar FogNoLB.fog[36].dispatcher droppedJobsSLA 0
scalar FogNoLB.fog[36].dispatcher jobs_class_1 582293
scalar FogNoLB.fog[36].dispatcher localJobs_class_1 582293
scalar FogNoLB.fog[36].server[0] rho 0.88795578479767
scalar FogNoLB.fog[36].server[0] congestionRatio 0
scalar FogNoLB.fog[36].server[0] totalJobs 582293
scalar FogNoLB.fog[36].server[0] droppedJobsQueue 510
scalar FogNoLB.fog[36].server[0] droppedJobsTimout 26007
scalar FogNoLB.fog[36].server[0] droppedJobsSLA 0
scalar FogNoLB.fog[36].server[0] droppedJobsTotal 26517
scalar FogNoLB.fog[37].dispatcher localJobs 582121
scalar FogNoLB.fog[37].dispatcher remoteJobs 0
scalar FogNoLB.fog[37].dispatcher probeQueries 0
scalar FogNoLB.fog[37].dispatcher probeAnswers 0
scalar FogNoLB.fog[37].dispatcher droppedJobsSLA 0
scalar FogNoLB.fog[37].dispatcher jobs_class_1 582121
scalar FogNoLB.fog[37].dispatcher localJobs_class_1 582121
scalar FogNoLB.fog[37].server[0] rho 0.88820791244507
scalar FogNoLB.fog[37].server[0] congestionRatio 0
scalar FogNoLB.fog[37].server[0] totalJobs 582121
scalar FogNoLB.fog[37].server[0] droppedJobsQueue 671
scalar FogNoLB.fog[37].server[0] droppedJobsTimout 24218
scalar FogNoLB.fog[37].server[0] droppedJobsSLA 0
scalar FogNoLB.fog[37].server[0] droppedJobsTotal 24889
scalar FogNoLB.fog[38].dispatcher localJobs 580986
scalar FogNoLB.fog[38].dispatcher remoteJobs 0
scalar FogNoLB.fog[38].dispatcher probeQueries 0
scalar FogNoLB.fog[38].dispatcher probeAnswers 0
scalar FogNoLB.fog[38].dispatcher droppedJobsSLA 0
scalar FogNoLB.fog[38].dispatcher jobs_class_1 580986
scalar FogNoLB.fog[38].dispatcher localJobs_class_1 580986
scalar FogNoLB.fog[38].server[0] rho 0.88642710447311
scalar FogNoLB.fog[38].server[0] congestionRatio 0
scalar FogNoLB.fog[38].server[0] totalJobs 580986
scalar FogNoLB.fog[38].server[0] droppedJobsQueue 573
scalar FogNoLB.fog[38].server[0] droppedJobsTimout 24457
scalar FogNoLB.fog[38].server[0] droppedJobsSLA 0
scalar FogNoLB.fog[38].server[0] droppedJobsTotal 25030
scalar FogNoLB.fog[39].dispatcher localJobs 582431
scalar FogNoLB.fog[39].dispatcher remoteJobs 0
scalar FogNoLB.fog[39].dispatcher probeQueries 0
scalar FogNoLB.fog[39].dispatcher probeAnswers 0
scalar FogNoLB.fog[39].dispatcher droppedJobsSLA 0
scalar FogNoLB.fog[39].dispatcher jobs_class_1 582431
scalar FogNoLB.fog[39].dispatcher localJobs_class_1 582431
scalar FogNoLB.fog[39].server[0] rho 0.88841247558594
scalar FogNoLB.fog[39].server[0] congestionRatio 0
scalar FogNoLB.fog[39].server[0] totalJobs 582431
scalar FogNoLB.fog[39].server[0] droppedJobsQueue 627
scalar FogNoLB.fog[39].server[0] droppedJobsTimout 25344
scalar FogNoLB.fog[39].server[0] droppedJobsSLA 0
scalar FogNoLB.fog[39].server[0] droppedJobsTotal 25971
scalar FogNoLB.fog[40].dispatcher localJobs 580943
scalar FogNoLB.fog[40].dispatcher remoteJobs 0
scalar FogNoLB.fog[40].dispatcher probeQueries 0
scalar FogNoLB.fog[40].dispatcher probeAnswers 0
scalar FogNoLB.fog[40].dispatcher droppedJobsSLA 0
scalar FogNoLB.fog[40].dispatcher jobs_class_1 580943
scalar FogNoLB.fog[40].dispatcher localJobs_class_1 580943
scalar FogNoLB.fog[40].server[0] rho 0.88661730289459
scalar FogNoLB.fog[40].server[0] congestionRatio 0
scalar FogNoLB.fog[40].server[0] totalJobs 580943
scalar FogNoLB.fog[40].server[0] droppedJobsQueue 592
scalar FogNoLB.fog[40].server[0] droppedJobsTimout 24238
scalar FogNoLB.fog[40].server[0] droppedJobsSLA 0
scalar FogNoLB.fog[40].server[0] droppedJobsTotal 24830
scalar FogNoLB.fog[41].dispatcher localJobs 581801
scalar FogNoLB.fog[41].dispatcher remoteJobs 0
scalar FogNoLB.fog[41].dispatcher probeQueries 0
scalar FogNoLB.fog[41].dispatcher probeAnswers 0
scalar FogNoLB.fog[41].dispatcher droppedJobsSLA 0
scalar FogNoLB.fog[41].dispatcher jobs_class_1 581801
scalar FogNoLB.fog[41].dispatcher localJobs_class_1 581801
scalar FogNoLB.fog[41].server[0] rho 0.88799035549164
scalar FogNoLB.fog[41].server[0] congestionRatio 0
scalar FogNoLB.fog[41].server[0] totalJobs 581801
scalar FogNoLB.fog[41].server[0] droppedJobsQueue 568
scalar FogNoLB.fog[41].server[0] droppedJobsTimout 24551
scalar FogNoLB.fog[41].server[0] droppedJobsSLA 0
scalar FogNoLB.fog[41].server[0] droppedJobsTotal 25119
scalar FogNoLB.fog[42].dispatcher localJobs 581795
scalar FogNoLB.fog[42].dispatcher remoteJobs 0
scalar FogNoLB.fog[42].dispatcher probeQueries 0
scalar FogNoLB.fog[42].dispatcher probeAnswers 0
scalar FogNoLB.fog[42].dispatcher droppedJobsSLA 0
scalar FogNoLB.fog[42].dispatcher jobs_class_1 581795
scalar FogNoLB.fog[42].dispatcher localJobs_class_1 581795
scalar FogNoLB.fog[42].server[0] rho 0.88814544677734
scalar FogNoLB.fog[42].server[0] congestionRatio 0
scalar FogNoLB.fog[42].server[0] totalJobs 581795
scalar FogNoLB.fog[42].server[0] droppedJobsQueue 500
scalar FogNoLB.fog[42].server[0] droppedJobsTimout 23950
scalar FogNoLB.fog[42].server[0] droppedJobsSLA 0
scalar FogNoLB.fog[42].server[0] droppedJobsTotal 24450
scalar FogNoLB.fog[43].dispatcher localJobs 582393
scalar FogNoLB.fog[43].dispatcher remoteJobs 0
scalar FogNoLB.fog[43].dispatcher probeQueries 0
scalar FogNoLB.fog[43].dispatcher probeAnswers 0
scalar FogNoLB.fog[43].dispatcher droppedJobsSLA 0
scalar FogNoLB.fog[43].dispatcher jobs_class_1 582393
scalar FogNoLB.fog[43].dispatcher localJobs_class_1 582393
scalar FogNoLB.fog[43].server[0] rho 0.88883036375046
scalar FogNoLB.fog[43].server[0] congestionRatio 0
scalar FogNoLB.fog[43].server[0] totalJobs 582393
scalar FogNoLB.fog[43].server[0] droppedJobsQueue 581
scalar FogNoLB.fog[43].server[0] droppedJobsTimout 24524
scalar FogNoLB.fog[43].server[0] droppedJobsSLA 0
scalar FogNoLB.fog[43].server[0] droppedJobsTotal 25105
scalar FogNoLB.fog[44].dispatcher localJobs 580415
scalar FogNoLB.fog[44].dispatcher remoteJobs 0
scalar FogNoLB.fog[44].dispatcher probeQueries 0
scalar FogNoLB.fog[44].dispatcher probeAnswers 0
scalar FogNoLB.fog[44].dispatcher droppedJobsSLA 0
scalar FogNoLB.fog[44].dispatcher jobs_class_1 580415
scalar FogNoLB.fog[44].dispatcher localJobs_class_1 580415
scalar FogNoLB.fog[44].server[0] rho 0.88621693849564
scalar FogNoLB.fog[44].server[0] congestionRatio 0
scalar FogNoLB.fog[44].server[0] totalJobs 580415
scalar FogNoLB.fog[44].server[0] droppedJobsQueue 541
scalar FogNoLB.fog[44].server[0] droppedJobsTimout 23236
scalar FogNoLB.fog[44].server[0] droppedJobsSLA 0
scalar FogNoLB.fog[44].server[0] droppedJobsTotal 23777
scalar FogNoLB.fog[45].dispatcher localJobs 580844
scalar FogNoLB.fog[45].dispatcher remoteJobs 0
scalar FogNoLB.fog[45].dispatcher probeQueries 0
scalar FogNoLB.fog[45].dispatcher probeAnswers 0
scalar FogNoLB.fog[45].dispatcher droppedJobsSLA 0
scalar FogNoLB.fog[45].dispatcher jobs_class_1 580844
scalar FogNoLB.fog[45].dispatcher localJobs_class_1 580844
scalar FogNoLB.fog[45].server[0] rho 0.88665735721588
scalar FogNoLB.fog[45].server[0] congestionRatio 0
scalar FogNoLB.fog[45].server[0] totalJobs 580844
scalar FogNoLB.fog[45].server[0] droppedJobsQueue 512
scalar FogNoLB.fog[45].server[0] droppedJobsTimout 24021
scalar FogNoLB.fog[45].server[0] droppedJobsSLA 0
scalar FogNoLB.fog[45].server[0] droppedJobsTotal 24533
scalar FogNoLB.fog[46].dispatcher localJobs 581219
scalar FogNoLB.fog[46].dispatcher remoteJobs 0
scalar FogNoLB.fog[46].dispatcher probeQueries 0
scalar FogNoLB.fog[46].dispatcher probeAnswers 0
scalar FogNoLB.fog[46].dispatcher droppedJobsSLA 0
scalar FogNoLB.fog[46].dispatcher jobs_class_1 581219
scalar FogNoLB.fog[46].dispatcher localJobs_class_1 581219
scalar FogNoLB.fog[46].server[0] rho 0.88694673776627
scalar FogNoLB.fog[46].server[0] congestionRatio 0
scalar FogNoLB.fog[46].server[0] totalJobs 581219
scalar FogNoLB.fog[46].server[0] droppedJobsQueue 563
scalar FogNoLB.fog[46].server[0] droppedJobsTimout 24499
scalar FogNoLB.fog[46].server[0] droppedJobsSLA 0
scalar FogNoLB.fog[46].server[0] droppedJobsTotal 25062
scalar FogNoLB.fog[47].dispatcher localJobs 579846
scalar FogNoLB.fog[47].dispatcher remoteJobs 0
scalar FogNoLB.fog[47].dispatcher probeQueries 0
scalar FogNoLB.fog[47].dispatcher probeAnswers 0
scalar FogNoLB.fog[47].dispatcher droppedJobsSLA 0
scalar FogNoLB.fog[47].dispatcher jobs_class_1 579846
scalar FogNoLB.fog[47].dispatcher localJobs_class_1 579846
scalar FogNoLB.fog[47].server[0] rho 0.88570791482925
scalar FogNoLB.fog[47].server[0] congestionRatio 0
scalar FogNoLB.fog[47].server[0] totalJobs 579846
scalar FogNoLB.fog[47].server[0] droppedJobsQueue 456
scalar FogNoLB.fog[47].server[0] droppedJobsTimout 23257
scalar FogNoLB.fog[47].server[0] droppedJobsSLA 0
scalar FogNoLB.fog[47].server[0] droppedJobsTotal 23713
scalar FogNoLB.fog[48].dispatcher localJobs 582782
scalar FogNoLB.fog[48].dispatcher remoteJobs 0
scalar FogNoLB.fog[48].dispatcher probeQueries 0
scalar FogNoLB.fog[48].dispatcher probeAnswers 0
scalar FogNoLB.fog[48].dispatcher droppedJobsSLA 0
scalar FogNoLB.fog[48].dispatcher jobs_class_1 582782
scalar FogNoLB.fog[48].dispatcher localJobs_class_1 582782
scalar FogNoLB.fog[48].server[0] rho 0.88919287919998
scalar FogNoLB.fog[48].server[0] congestionRatio 0
scalar FogNoLB.fog[48].server[0] totalJobs 582782
scalar FogNoLB.fog[48].server[0] droppedJobsQueue 532
scalar FogNoLB.fog[48].server[0] droppedJobsTimout 24799
scalar FogNoLB.fog[48].server[0] droppedJobsSLA 0
scalar FogNoLB.fog[48].server[0] droppedJobsTotal 25331
scalar FogNoLB.fog[49].dispatcher localJobs 582178
scalar FogNoLB.fog[49].dispatcher remoteJobs 0
scalar FogNoLB.fog[49].dispatcher probeQueries 0
scalar FogNoLB.fog[49].dispatcher probeAnswers 0
scalar FogNoLB.fog[49].dispatcher droppedJobsSLA 0
scalar FogNoLB.fog[49].dispatcher jobs_class_1 582178
scalar FogNoLB.fog[49].dispatcher localJobs_class_1 582178
scalar FogNoLB.fog[49].server[0] rho 0.88825309276581
scalar FogNoLB.fog[49].server[0] congestionRatio 0
scalar FogNoLB.fog[49].server[0] totalJobs 582178
scalar FogNoLB.fog[49].server[0] droppedJobsQueue 563
scalar FogNoLB.fog[49].server[0] droppedJobsTimout 24576
scalar FogNoLB.fog[49].server[0] droppedJobsSLA 0
scalar FogNoLB.fog[49].server[0] droppedJobsTotal 25139
scalar FogNoLB.fog[50].dispatcher localJobs 581406
scalar FogNoLB.fog[50].dispatcher remoteJobs 0
scalar FogNoLB.fog[50].dispatcher probeQueries 0
scalar FogNoLB.fog[50].dispatcher probeAnswers 0
scalar FogNoLB.fog[50].dispatcher droppedJobsSLA 0
scalar FogNoLB.fog[50].dispatcher jobs_class_1 581406
scalar FogNoLB.fog[50].dispatcher localJobs_class_1 581406
scalar FogNoLB.fog[50].server[0] rho 0.88697361946106
scalar FogNoLB.fog[50].server[0] congestionRatio 0
scalar FogNoLB.fog[50].server[0] totalJobs 581406
scalar FogNoLB.fog[50].server[0] droppedJobsQueue 603
scalar FogNoLB.fog[50].server[0] droppedJobsTimout 24780
scalar FogNoLB.fog[50].server[0] droppedJobsSLA 0
scalar FogNoLB.fog[50].server[0] droppedJobsTotal 25383
scalar FogNoLB.fog[51].dispatcher localJobs 582636
scalar FogNoLB.fog[51].dispatcher remoteJobs 0
scalar FogNoLB.fog[51].dispatcher probeQueries 0
scalar FogNoLB.fog[51].dispatcher probeAnswers 0
scalar FogNoLB.fog[51].dispatcher droppedJobsSLA 0
scalar FogNoLB.fog[51].dispatcher jobs_class_1 582636
scalar FogNoLB.fog[51].dispatcher localJobs_class_1 582636
scalar FogNoLB.fog[51].server[0] rho 0.88873887062073
scalar FogNoLB.fog[51].server[0] congestionRatio 0
scalar FogNoLB.fog[51].server[0] totalJobs 582636
scalar FogNoLB.fog[51].server[0] droppedJobsQueue 585
scalar FogNoLB.fog[51].server[0] droppedJobsTimout 25196
scalar FogNoLB.fog[51].server[0] droppedJobsSLA 0
scalar FogNoLB.fog[51].server[0] droppedJobsTotal 25781
scalar FogNoLB.fog[52].dispatcher localJobs 581970
scalar FogNoLB.fog[52].dispatcher remoteJobs 0
scalar FogNoLB.fog[52].dispatcher probeQueries 0
scalar FogNoLB.fog[52].dispatcher probeAnswers 0
scalar FogNoLB.fog[52].dispatcher droppedJobsSLA 0
scalar FogNoLB.fog[52].dispatcher jobs_class_1 581970
scalar FogNoLB.fog[52].dispatcher localJobs_class_1 581970
scalar FogNoLB.fog[52].server[0] rho 0.88789397478104
scalar FogNoLB.fog[52].server[0] congestionRatio 0
scalar FogNoLB.fog[52].server[0] totalJobs 581970
scalar FogNoLB.fog[52].server[0] droppedJobsQueue 589
scalar FogNoLB.fog[52].server[0] droppedJobsTimout 24505
scalar FogNoLB.fog[52].server[0] droppedJobsSLA 0
scalar FogNoLB.fog[52].server[0] droppedJobsTotal 25094
scalar FogNoLB.fog[53].dispatcher localJobs 581853
scalar FogNoLB.fog[53].dispatcher remoteJobs 0
scalar FogNoLB.fog[53].dispatcher probeQueries 0
scalar FogNoLB.fog[53].dispatcher probeAnswers 0
scalar FogNoLB.fog[53].dispatcher droppedJobsSLA 0
scalar FogNoLB.fog[53].dispatcher jobs_class_1 581853
scalar FogNoLB.fog[53].dispatcher localJobs_class_1 581853
scalar FogNoLB.fog[53].server[0] rho 0.88836246728897
scalar FogNoLB.fog[53].server[0] congestionRatio 0
scalar FogNoLB.fog[53].server[0] totalJobs 581853
scalar FogNoLB.fog[53].server[0] droppedJobsQueue 519
scalar FogNoLB.fog[53].server[0] droppedJobsTimout 24094
scalar FogNoLB.fog[53].server[0] droppedJobsSLA 0
scalar FogNoLB.fog[53].server[0] droppedJobsTotal 24613
scalar FogNoLB.fog[54].dispatcher localJobs 581773
scalar FogNoLB.fog[54].dispatcher remoteJobs 0
scalar FogNoLB.fog[54].dispatcher probeQueries 0
scalar FogNoLB.fog[54].dispatcher probeAnswers 0
scalar FogNoLB.fog[54].dispatcher droppedJobsSLA 0
scalar FogNoLB.fog[54].dispatcher jobs_class_1 581773
scalar FogNoLB.fog[54].dispatcher localJobs_class_1 581773
scalar FogNoLB.fog[54].server[0] rho 0.88807010650635
scalar FogNoLB.fog[54].server[0] congestionRatio 0
scalar FogNoLB.fog[54].server[0] totalJobs 581773
scalar FogNoLB.fog[54].server[0] droppedJobsQueue 468
scalar FogNoLB.fog[54].server[0] droppedJobsTimout 24479
scalar FogNoLB.fog[54].server[0] droppedJobsSLA 0
scalar FogNoLB.fog[54].server[0] droppedJobsTotal 24947
scalar FogNoLB.fog[55].dispatcher localJobs 582789
scalar FogNoLB.fog[55].dispatcher remoteJobs 0
scalar FogNoLB.fog[55].dispatcher probeQueries 0
scalar FogNoLB.fog[55].dispatcher probeAnswers 0
scalar FogNoLB.fog[55].dispatcher droppedJobsSLA 0
scalar FogNoLB.fog[55].dispatcher jobs_class_1 582789
scalar FogNoLB.fog[55].dispatcher localJobs_class_1 582789
scalar FogNoLB.fog[55].server[0] rho 0.88925701379776
scalar FogNoLB.fog[55].server[0] congestionRatio 0
scalar FogNoLB.fog[55].server[0] totalJobs 582789
scalar FogNoLB.fog[55].server[0] droppedJobsQueue 531
scalar FogNoLB.fog[55].server[0] droppedJobsTimout 24731
scalar FogNoLB.fog[55].server[0] droppedJobsSLA 0
scalar FogNoLB.fog[55].server[0] droppedJobsTotal 25262
scalar FogNoLB.fog[56].dispatcher localJobs 581000
scalar FogNoLB.fog[56].dispatcher remoteJobs 0
scalar FogNoLB.fog[56].dispatcher probeQueries 0
scalar FogNoLB.fog[56].dispatcher probeAnswers 0
scalar FogNoLB.fog[56].dispatcher droppedJobsSLA 0
scalar FogNoLB.fog[56].dispatcher jobs_class_1 581000
scalar FogNoLB.fog[56].dispatcher localJobs_class_1 581000
scalar FogNoLB.fog[56].server[0] rho 0.88656032085419
scalar FogNoLB.fog[56].server[0] congestionRatio 0
scalar FogNoLB.fog[56].server[0] totalJobs 581000
scalar FogNoLB.fog[56].server[0] droppedJobsQueue 559
scalar FogNoLB.fog[56].server[0] droppedJobsTimout 24330
scalar FogNoLB.fog[56].server[0] droppedJobsSLA 0
scalar FogNoLB.fog[56].server[0] droppedJobsTotal 24889
scalar FogNoLB.fog[57].dispatcher localJobs 582371
scalar FogNoLB.fog[57].dispatcher remoteJobs 0
scalar FogNoLB.fog[57].dispatcher probeQueries 0
scalar FogNoLB.fog[57].dispatcher probeAnswers 0
scalar FogNoLB.fog[57].dispatcher droppedJobsSLA 0
scalar FogNoLB.fog[57].dispatcher jobs_class_1 582371
scalar FogNoLB.fog[57].dispatcher localJobs_class_1 582371
scalar FogNoLB.fog[57].server[0] rho 0.8888253569603
scalar FogNoLB.fog[57].server[0] congestionRatio 0
scalar FogNoLB.fog[57].server[0] totalJobs 582371
scalar FogNoLB.fog[57].server[0] droppedJobsQueue 522
scalar FogNoLB.fog[57].server[0] droppedJobsTimout 24546
scalar FogNoLB.fog[57].server[0] droppedJobsSLA 0
scalar FogNoLB.fog[57].server[0] droppedJobsTotal 25068
scalar FogNoLB.fog[58].dispatcher localJobs 583026
scalar FogNoLB.fog[58].dispatcher remoteJobs 0
scalar FogNoLB.fog[58].dispatcher probeQueries 0
scalar FogNoLB.fog[58].dispatcher probeAnswers 0
scalar FogNoLB.fog[58].dispatcher droppedJobsSLA 0
scalar FogNoLB.fog[58].dispatcher jobs_class_1 583026
scalar FogNoLB.fog[58].dispatcher localJobs_class_1 583026
scalar FogNoLB.fog[58].server[0] rho 0.88997662067413
scalar FogNoLB.fog[58].server[0] congestionRatio 0
scalar FogNoLB.fog[58].server[0] totalJobs 583026
scalar FogNoLB.fog[58].server[0] droppedJobsQueue 518
scalar FogNoLB.fog[58].server[0] droppedJobsTimout 24231
scalar FogNoLB.fog[58].server[0] droppedJobsSLA 0
scalar FogNoLB.fog[58].server[0] droppedJobsTotal 24749
scalar FogNoLB.fog[59].dispatcher localJobs 581882
scalar FogNoLB.fog[59].dispatcher remoteJobs 0
scalar FogNoLB.fog[59].dispatcher probeQueries 0
scalar FogNoLB.fog[59].dispatcher probeAnswers 0
scalar FogNoLB.fog[59].dispatcher droppedJobsSLA 0
scalar FogNoLB.fog[59].dispatcher jobs_class_1 581882
scalar FogNoLB.fog[59].dispatcher localJobs_class_1 581882
scalar FogNoLB.fog[59].server[0] rho 0.88819408416748
scalar FogNoLB.fog[59].server[0] congestionRatio 0
scalar FogNoLB.fog[59].server[0] totalJobs 581882
scalar FogNoLB.fog[59].server[0] droppedJobsQueue 521
scalar FogNoLB.fog[59].server[0] droppedJobsTimout 24397
scalar FogNoLB.fog[59].server[0] droppedJobsSLA 0
scalar FogNoLB.fog[59].server[0] droppedJobsTotal 24918
scalar FogNoLB.fog[60].dispatcher localJobs 583259
scalar FogNoLB.fog[60].dispatcher remoteJobs 0
scalar FogNoLB.fog[60].dispatcher probeQueries 0
scalar FogNoLB.fog[60].dispatcher probeAnswers 0
scalar FogNoLB.fog[60].dispatcher droppedJobsSLA 0
scalar FogNoLB.fog[60].dispatcher jobs_class_1 583259
scalar FogNoLB.fog[60].dispatcher localJobs_class_1 583259
scalar FogNoLB.fog[60].server[0] rho 0.88975495100021
scalar FogNoLB.fog[60].server[0] congestionRatio 0
scalar FogNoLB.fog[60].server[0] totalJobs 583259
scalar FogNoLB.fog[60].server[0] droppedJobsQueue 599
scalar FogNoLB.fog[60].server[0] droppedJobsTimout 25402
scalar FogNoLB.fog[60].server[0] droppedJobsSLA 0
scalar FogNoLB.fog[60].server[0] droppedJobsTotal 26001
scalar FogNoLB.fog[61].dispatcher localJobs 582315
scalar FogNoLB.fog[61].dispatcher remoteJobs 0
scalar FogNoLB.fog[61].dispatcher probeQueries 0
scalar FogNoLB.fog[61].dispatcher probeAnswers 0
scalar FogNoLB.fog[61].dispatcher droppedJobsSLA 0
scalar FogNoLB.fog[61].dispatcher jobs_class_1 582315
scalar FogNoLB.fog[61].dispatcher localJobs_class_1 582315
scalar FogNoLB.fog[61].server[0] rho 0.88832008838654
scalar FogNoLB.fog[61].server[0] congestionRatio 0
scalar FogNoLB.fog[61].server[0] totalJobs 582315
scalar FogNoLB.fog[61].server[0] droppedJobsQueue 585
scalar FogNoLB.fog[61].server[0] droppedJobsTimout 25140
scalar FogNoLB.fog[61].server[0] droppedJobsSLA 0
scalar FogNoLB.fog[61].server[0] droppedJobsTotal 25725
scalar FogNoLB.fog[62].dispatcher localJobs 583266
scalar FogNoLB.fog[62].dispatcher remoteJobs 0
scalar FogNoLB.fog[62].dispatcher probeQueries 0
scalar FogNoLB.fog[62].dispatcher probeAnswers 0
scalar FogNoLB.fog[62].dispatcher droppedJobsSLA 0
scalar FogNoLB.fog[62].dispatcher jobs_class_1 583266
scalar FogNoLB.fog[62].dispatcher localJobs_class_1 583266
scalar FogNoLB.fog[62].server[0] rho 0.88903212547302
scalar FogNoLB.fog[62].server[0] congestionRatio 0
scalar FogNoLB.fog[62].server[0] totalJobs 583266
scalar FogNoLB.fog[62].server[0] droppedJobsQueue 657
scalar FogNoLB.fog[62].server[0] droppedJobsTimout 26361
scalar FogNoLB.fog[62].server[0] droppedJobsSLA 0
scalar FogNoLB.fog[62].server[0] droppedJobsTotal 27018
scalar FogNoLB.fog[63].dispatcher localJobs 581936
scalar FogNoLB.fog[63].dispatcher remoteJobs 0
scalar FogNoLB.fog[63].dispatcher probeQueries 0
scalar FogNoLB.fog[63].dispatcher probeAnswers 0
scalar FogNoLB.fog[63].dispatcher droppedJobsSLA 0
scalar FogNoLB.fog[63].dispatcher jobs_class_1 581936
scalar FogNoLB.fog[63].dispatcher localJobs_class_1 581936
scalar FogNoLB.fog[63].server[0] rho 0.88733410835266
scalar FogNoLB.fog[63].server[0] congestionRatio 0
scalar FogNoLB.fog[63].server[0] totalJobs 581936
scalar FogNoLB.fog[63].server[0] droppedJobsQueue 608
scalar FogNoLB.fog[63].server[0] droppedJobsTimout 25558
scalar FogNoLB.fog[63].server[0] droppedJobsSLA 0
scalar FogNoLB.fog[63].server[0] droppedJobsTotal 26166
scalar FogNoLB.fog[64].dispatcher localJobs 582166
scalar FogNoLB.fog[64].dispatcher remoteJobs 0
scalar FogNoLB.fog[64].dispatcher probeQueries 0
scalar FogNoLB.fog[64].dispatcher probeAnswers 0
scalar FogNoLB.fog[64].dispatcher droppedJobsSLA 0
scalar FogNoLB.fog[64].dispatcher jobs_class_1 582166
scalar FogNoLB.fog[64].dispatcher localJobs_class_1 582166
scalar FogNoLB.fog[64].server[0] rho 0.88790708780289
scalar FogNoLB.fog[64].server[0] congestionRatio 0
scalar FogNoLB.fog[64].server[0] totalJobs 582166
scalar FogNoLB.fog[64].server[0] droppedJobsQueue 590
scalar FogNoLB.fog[64].server[0] droppedJobsTimout 25344
scalar FogNoLB.fog[64].server[0] droppedJobsSLA 0
scalar FogNoLB.fog[64].server[0] droppedJobsTotal 25934
scalar FogNoLB.fog[65].dispatcher localJobs 581424
scalar FogNoLB.fog[65].dispatcher remoteJobs 0
scalar FogNoLB.fog[65].dispatcher probeQueries 0
scalar FogNoLB.fog[65].dispatcher probeAnswers 0
scalar FogNoLB.fog[65].dispatcher droppedJobsSLA 0
scalar FogNoLB.fog[65].dispatcher jobs_class_1 581424
scalar FogNoLB.fog[65].dispatcher localJobs_class_1 581424
scalar FogNoLB.fog[65].server[0] rho 0.88715177774429
scalar FogNoLB.fog[65].server[0] congestionRatio 0
scalar FogNoLB.fog[65].server[0] totalJobs 581424
scalar FogNoLB.fog[65].server[0] droppedJobsQueue 579
scalar FogNoLB.fog[65].server[0] droppedJobsTimout 24677
scalar FogNoLB.fog[65].server[0] droppedJobsSLA 0
scalar FogNoLB.fog[65].server[0] droppedJobsTotal 25256
scalar FogNoLB.fog[66].dispatcher localJobs 583138
scalar FogNoLB.fog[66].dispatcher remoteJobs 0
scalar FogNoLB.fog[66].dispatcher probeQueries 0
scalar FogNoLB.fog[66].dispatcher probeAnswers 0
scalar FogNoLB.fog[66].dispatcher droppedJobsSLA 0
scalar FogNoLB.fog[66].dispatcher jobs_class_1 583138
scalar FogNoLB.fog[66].dispatcher localJobs_class_1 583138
scalar FogNoLB.fog[66].server[0] rho 0.88957178592682
scalar FogNoLB.fog[66].server[0] congestionRatio 0
scalar FogNoLB.fog[66].server[0] totalJobs 583138
scalar FogNoLB.fog[66].server[0] droppedJobsQueue 570
scalar FogNoLB.fog[66].server[0] droppedJobsTimout 25150
scalar FogNoLB.fog[66].server[0] droppedJobsSLA 0
scalar FogNoLB.fog[66].server[0] droppedJobsTotal 25720
scalar FogNoLB.fog[67].dispatcher localJobs 582627
scalar FogNoLB.fog[67].dispatcher remoteJobs 0
scalar FogNoLB.fog[67].dispatcher probeQueries 0
scalar FogNoLB.fog[67].dispatcher probeAnswers 0
scalar FogNoLB.fog[67].dispatcher droppedJobsSLA 0
scalar FogNoLB.fog[67].dispatcher jobs_class_1 582627
scalar FogNoLB.fog[67].dispatcher localJobs_class_1 582627
scalar FogNoLB.fog[67].server[0] rho 0.88911706209183
scalar FogNoLB.fog[67].server[0] congestionRatio 0
scalar FogNoLB.fog[67].server[0] totalJobs 582627
scalar FogNoLB.fog[67].server[0] droppedJobsQueue 556
scalar FogNoLB.fog[67].server[0] droppedJobsTimout 24663
scalar FogNoLB.fog[67].server[0] droppedJobsSLA 0
scalar FogNoLB.fog[67].server[0] droppedJobsTotal 25219
scalar FogNoLB.fog[68].dispatcher localJobs 583301
scalar FogNoLB.fog[68].dispatcher remoteJobs 0
scalar FogNoLB.fog[68].dispatcher probeQueries 0
scalar FogNoLB.fog[68].dispatcher probeAnswers 0
scalar FogNoLB.fog[68].dispatcher droppedJobsSLA 0
scalar FogNoLB.fog[68].dispatcher jobs_class_1 583301
scalar FogNoLB.fog[68].dispatcher localJobs_class_1 583301
scalar FogNoLB.fog[68].server[0] rho 0.88957685232162
scalar FogNoLB.fog[68].server[0] congestionRatio 0
scalar FogNoLB.fog[68].server[0] totalJobs 583301
scalar FogNoLB.fog[68].server[0] droppedJobsQueue 545
scalar FogNoLB.fog[68].server[0] droppedJobsTimout 25921
scalar FogNoLB.fog[68].server[0] droppedJobsSLA 0
scalar FogNoLB.fog[68].server[0] droppedJobsTotal 26466
scalar FogNoLB.fog[69].dispatcher localJobs 582185
scalar FogNoLB.fog[69].dispatcher remoteJobs 0
scalar FogNoLB.fog[69].dispatcher probeQueries 0
scalar FogNoLB.fog[69].dispatcher probeAnswers 0
scalar FogNoLB.fog[69].dispatcher droppedJobsSLA 0
scalar FogNoLB.fog[69].dispatcher jobs_class_1 582185
scalar FogNoLB.fog[69].dispatcher localJobs_class_1 582185
scalar FogNoLB.fog[69].server[0] rho 0.88795751333237
scalar FogNoLB.fog[69].server[0] congestionRatio 0
scalar FogNoLB.fog[69].server[0] totalJobs 582185
scalar FogNoLB.fog[69].server[0] droppedJobsQueue 622
scalar FogNoLB.fog[69].server[0] droppedJobsTimout 25385
scalar FogNoLB.fog[69].server[0] droppedJobsSLA 0
scalar FogNoLB.fog[69].server[0] droppedJobsTotal 26007
scalar FogNoLB.fog[70].dispatcher localJobs 582795
scalar FogNoLB.fog[70].dispatcher remoteJobs 0
scalar FogNoLB.fog[70].dispatcher probeQueries 0
scalar FogNoLB.fog[70].dispatcher probeAnswers 0
scalar FogNoLB.fog[70].dispatcher droppedJobsSLA 0
scalar FogNoLB.fog[70].dispatcher jobs_class_1 582795
scalar FogNoLB.fog[70].dispatcher localJobs_class_1 582795
scalar FogNoLB.fog[70].server[0] rho 0.88950967788696
scalar FogNoLB.fog[70].server[0] congestionRatio 0
scalar FogNoLB.fog[70].server[0] totalJobs 582795
scalar FogNoLB.fog[70].server[0] droppedJobsQueue 518
scalar FogNoLB.fog[70].server[0] droppedJobsTimout 24476
scalar FogNoLB.fog[70].server[0] droppedJobsSLA 0
scalar FogNoLB.fog[70].server[0] droppedJobsTotal 24994
scalar FogNoLB.fog[71].dispatcher localJobs 582920
scalar FogNoLB.fog[71].dispatcher remoteJobs 0
scalar FogNoLB.fog[71].dispatcher probeQueries 0
scalar FogNoLB.fog[71].dispatcher probeAnswers 0
scalar FogNoLB.fog[71].dispatcher droppedJobsSLA 0
scalar FogNoLB.fog[71].dispatcher jobs_class_1 582920
scalar FogNoLB.fog[71].dispatcher localJobs_class_1 582920
scalar FogNoLB.fog[71].server[0] rho 0.88962805271149
scalar FogNoLB.fog[71].server[0] congestionRatio 0
scalar FogNoLB.fog[71].server[0] totalJobs 582920
scalar FogNoLB.fog[71].server[0] droppedJobsQueue 519
scalar FogNoLB.fog[71].server[0] droppedJobsTimout 24648
scalar FogNoLB.fog[71].server[0] droppedJobsSLA 0
scalar FogNoLB.fog[71].server[0] droppedJobsTotal 25167
scalar FogNoLB.fog[72].dispatcher localJobs 581350
scalar FogNoLB.fog[72].dispatcher remoteJobs 0
scalar FogNoLB.fog[72].dispatcher probeQueries 0
scalar FogNoLB.fog[72].dispatcher probeAnswers 0
scalar FogNoLB.fog[72].dispatcher droppedJobsSLA 0
scalar FogNoLB.fog[72].dispatcher jobs_class_1 581350
scalar FogNoLB.fog[72].dispatcher localJobs_class_1 581350
scalar FogNoLB.fog[72].server[0] rho 0.88720351457596
scalar FogNoLB.fog[72].server[0] congestionRatio 0
scalar FogNoLB.fog[72].server[0] totalJobs 581350
scalar FogNoLB.fog[72].server[0] droppedJobsQueue 550
scalar FogNoLB.fog[72].server[0] droppedJobsTimout 24283
scalar FogNoLB.fog[72].server[0] droppedJobsSLA 0
scalar FogNoLB.fog[72].server[0] droppedJobsTotal 24833
scalar FogNoLB.fog[73].dispatcher localJobs 581801
scalar FogNoLB.fog[73].dispatcher remoteJobs 0
scalar FogNoLB.fog[73].dispatcher probeQueries 0
scalar FogNoLB.fog[73].dispatcher probeAnswers 0
scalar FogNoLB.fog[73].dispatcher droppedJobsSLA 0
scalar FogNoLB.fog[73].dispatcher jobs_class_1 581801
scalar FogNoLB.fog[73].dispatcher localJobs_class_1 581801
scalar FogNoLB.fog[73].server[0] rho 0.88824963569641
scalar FogNoLB.fog[73].server[0] congestionRatio 0
scalar FogNoLB.fog[73].server[0] totalJobs 581801
scalar FogNoLB.fog[73].server[0] droppedJobsQueue 529
scalar FogNoLB.fog[73].server[0] droppedJobsTimout 23701
scalar FogNoLB.fog[73].server[0] droppedJobsSLA 0
scalar FogNoLB.fog[73].server[0] droppedJobsTotal 24230
scalar FogNoLB.fog[74].dispatcher localJobs 583587
scalar FogNoLB.fog[74].dispatcher remoteJobs 0
scalar FogNoLB.fog[74].dispatcher probeQueries 0
scalar FogNoLB.fog[74].dispatcher probeAnswers 0
scalar FogNoLB.fog[74].dispatcher droppedJobsSLA 0
scalar FogNoLB.fog[74].dispatcher jobs_class_1 583587
scalar FogNoLB.fog[74].dispatcher localJobs_class_1 583587
scalar FogNoLB.fog[74].server[0] rho 0.8895171880722
scalar FogNoLB.fog[74].server[0] congestionRatio 0
scalar FogNoLB.fog[74].server[0] totalJobs 583587
scalar FogNoLB.fog[74].server[0] droppedJobsQueue 647
scalar FogNoLB.fog[74].server[0] droppedJobsTimout 26508
scalar FogNoLB.fog[74].server[0] droppedJobsSLA 0
scalar FogNoLB.fog[74].server[0] droppedJobsTotal 27155
scalar FogNoLB.fog[75].dispatcher localJobs 582207
scalar FogNoLB.fog[75].dispatcher remoteJobs 0
scalar FogNoLB.fog[75].dispatcher probeQueries 0
scalar FogNoLB.fog[75].dispatcher probeAnswers 0
scalar FogNoLB.fog[75].dispatcher droppedJobsSLA 0
scalar FogNoLB.fog[75].dispatcher jobs_class_1 582207
scalar FogNoLB.fog[75].dispatcher localJobs_class_1 582207
scalar FogNoLB.fog[75].server[0] rho 0.88835120201111
scalar FogNoLB.fog[75].server[0] congestionRatio 0
scalar FogNoLB.fog[75].server[0] totalJobs 582207
scalar FogNoLB.fog[75].server[0] droppedJobsQueue 561
scalar FogNoLB.fog[75].server[0] droppedJobsTimout 24424
scalar FogNoLB.fog[75].server[0] droppedJobsSLA 0
scalar FogNoLB.fog[75].server[0] droppedJobsTotal 24985
scalar FogNoLB.fog[76].dispatcher localJobs 582046
scalar FogNoLB.fog[76].dispatcher remoteJobs 0
scalar FogNoLB.fog[76].dispatcher probeQueries 0
scalar FogNoLB.fog[76].dispatcher probeAnswers 0
scalar FogNoLB.fog[76].dispatcher droppedJobsSLA 0
scalar FogNoLB.fog[76].dispatcher jobs_class_1 582046
scalar FogNoLB.fog[76].dispatcher localJobs_class_1 582046
scalar FogNoLB.fog[76].server[0] rho 0.88852941989899
scalar FogNoLB.fog[76].server[0] congestionRatio 0
scalar FogNoLB.fog[76].server[0] totalJobs 582046
scalar FogNoLB.fog[76].server[0] droppedJobsQueue 555
scalar FogNoLB.fog[76].server[0] droppedJobsTimout 23727
scalar FogNoLB.fog[76].server[0] droppedJobsSLA 0
scalar FogNoLB.fog[76].server[0] droppedJobsTotal 24282
scalar FogNoLB.fog[77].dispatcher localJobs 581824
scalar FogNoLB.fog[77].dispatcher remoteJobs 0
scalar FogNoLB.fog[77].dispatcher probeQueries 0
scalar FogNoLB.fog[77].dispatcher probeAnswers 0
scalar FogNoLB.fog[77].dispatcher droppedJobsSLA 0
scalar FogNoLB.fog[77].dispatcher jobs_class_1 581824
scalar FogNoLB.fog[77].dispatcher localJobs_class_1 581824
scalar FogNoLB.fog[77].server[0] rho 0.88751995563507
scalar FogNoLB.fog[77].server[0] congestionRatio 0
scalar FogNoLB.fog[77].server[0] totalJobs 581824
scalar FogNoLB.fog[77].server[0] droppedJobsQueue 568
scalar FogNoLB.fog[77].server[0] droppedJobsTimout 25165
scalar FogNoLB.fog[77].server[0] droppedJobsSLA 0
scalar FogNoLB.fog[77].server[0] droppedJobsTotal 25733
scalar FogNoLB.fog[78].dispatcher localJobs 582425
scalar FogNoLB.fog[78].dispatcher remoteJobs 0
scalar FogNoLB.fog[78].dispatcher probeQueries 0
scalar FogNoLB.fog[78].dispatcher probeAnswers 0
scalar FogNoLB.fog[78].dispatcher droppedJobsSLA 0
scalar FogNoLB.fog[78].dispatcher jobs_class_1 582425
scalar FogNoLB.fog[78].dispatcher localJobs_class_1 582425
scalar FogNoLB.fog[78].server[0] rho 0.88916593790054
scalar FogNoLB.fog[78].server[0] congestionRatio 0
scalar FogNoLB.fog[78].server[0] totalJobs 582425
scalar FogNoLB.fog[78].server[0] droppedJobsQueue 477
scalar FogNoLB.fog[78].server[0] droppedJobsTimout 24130
scalar FogNoLB.fog[78].server[0] droppedJobsSLA 0
scalar FogNoLB.fog[78].server[0] droppedJobsTotal 24607
scalar FogNoLB.fog[79].dispatcher localJobs 582607
scalar FogNoLB.fog[79].dispatcher remoteJobs 0
scalar FogNoLB.fog[79].dispatcher probeQueries 0
scalar FogNoLB.fog[79].dispatcher probeAnswers 0
scalar FogNoLB.fog[79].dispatcher droppedJobsSLA 0
scalar FogNoLB.fog[79].dispatcher jobs_class_1 582607
scalar FogNoLB.fog[79].dispatcher localJobs_class_1 582607
scalar FogNoLB.fog[79].server[0] rho 0.88907915353775
scalar FogNoLB.fog[79].server[0] congestionRatio 0
scalar FogNoLB.fog[79].server[0] totalJobs 582607
scalar FogNoLB.fog[79].server[0] droppedJobsQueue 543
scalar FogNoLB.fog[79].server[0] droppedJobsTimout 24532
scalar FogNoLB.fog[79].server[0] droppedJobsSLA 0
scalar FogNoLB.fog[79].server[0] droppedJobsTotal 25075
scalar FogNoLB.fog[80].dispatcher localJobs 582230
scalar FogNoLB.fog[80].dispatcher remoteJobs 0
scalar FogNoLB.fog[80].dispatcher probeQueries 0
scalar FogNoLB.fog[80].dispatcher probeAnswers 0
scalar FogNoLB.fog[80].dispatcher droppedJobsSLA 0
scalar FogNoLB.fog[80].dispatcher jobs_class_1 582230
scalar FogNoLB.fog[80].dispatcher localJobs_class_1 582230
scalar FogNoLB.fog[80].server[0] rho 0.8878065943718
scalar FogNoLB.fog[80].server[0] congestionRatio 0
scalar FogNoLB.fog[80].server[0] totalJobs 582230
scalar FogNoLB.fog[80].server[0] droppedJobsQueue 625
scalar FogNoLB.fog[80].server[0] droppedJobsTimout 25751
scalar FogNoLB.fog[80].server[0] droppedJobsSLA 0
scalar FogNoLB.fog[80].server[0] droppedJobsTotal 26376
scalar FogNoLB.fog[81].dispatcher localJobs 581742
scalar FogNoLB.fog[81].dispatcher remoteJobs 0
scalar FogNoLB.fog[81].dispatcher probeQueries 0
scalar FogNoLB.fog[81].dispatcher probeAnswers 0
scalar FogNoLB.fog[81].dispatcher droppedJobsSLA 0
scalar FogNoLB.fog[81].dispatcher jobs_class_1 581742
scalar FogNoLB.fog[81].dispatcher localJobs_class_1 581742
scalar FogNoLB.fog[81].server[0] rho 0.887859582901
scalar FogNoLB.fog[81].server[0] congestionRatio 0
scalar FogNoLB.fog[81].server[0] totalJobs 581742
scalar FogNoLB.fog[81].server[0] droppedJobsQueue 542
scalar FogNoLB.fog[81].server[0] droppedJobsTimout 24818
scalar FogNoLB.fog[81].server[0] droppedJobsSLA 0
scalar FogNoLB.fog[81].server[0] droppedJobsTotal 25360
scalar FogNoLB.fog[82].dispatcher localJobs 581862
scalar FogNoLB.fog[82].dispatcher remoteJobs 0
scalar FogNoLB.fog[82].dispatcher probeQueries 0
scalar FogNoLB.fog[82].dispatcher probeAnswers 0
scalar FogNoLB.fog[82].dispatcher droppedJobsSLA 0
scalar FogNoLB.fog[82].dispatcher jobs_class_1 581862
scalar FogNoLB.fog[82].dispatcher localJobs_class_1 581862
scalar FogNoLB.fog[82].server[0] rho 0.88827049732208
scalar FogNoLB.fog[82].server[0] congestionRatio 0
scalar FogNoLB.fog[82].server[0] totalJobs 581862
scalar FogNoLB.fog[82].server[0] droppedJobsQueue 528
scalar FogNoLB.fog[82].server[0] droppedJobsTimout 23986
scalar FogNoLB.fog[82].server[0] droppedJobsSLA 0
scalar FogNoLB.fog[82].server[0] droppedJobsTotal 24514
scalar FogNoLB.fog[83].dispatcher localJobs 582196
scalar FogNoLB.fog[83].dispatcher remoteJobs 0
scalar FogNoLB.fog[83].dispatcher probeQueries 0
scalar FogNoLB.fog[83].dispatcher probeAnswers 0
scalar FogNoLB.fog[83].dispatcher droppedJobsSLA 0
scalar FogNoLB.fog[83].dispatcher jobs_class_1 582196
scalar FogNoLB.fog[83].dispatcher localJobs_class_1 582196
scalar FogNoLB.fog[83].server[0] rho 0.88844931125641
scalar FogNoLB.fog[83].server[0] congestionRatio 0
scalar FogNoLB.fog[83].server[0] totalJobs 582196
scalar FogNoLB.fog[83].server[0] droppedJobsQueue 557
scalar FogNoLB.fog[83].server[0] droppedJobsTimout 24392
scalar FogNoLB.fog[83].server[0] droppedJobsSLA 0
scalar FogNoLB.fog[83].server[0] droppedJobsTotal 24949
scalar FogNoLB.fog[84].dispatcher localJobs 581055
scalar FogNoLB.fog[84].dispatcher remoteJobs 0
scalar FogNoLB.fog[84].dispatcher probeQueries 0
scalar FogNoLB.fog[84].dispatcher probeAnswers 0
scalar FogNoLB.fog[84].dispatcher droppedJobsSLA 0
scalar FogNoLB.fog[84].dispatcher jobs_class_1 581055
scalar FogNoLB.fog[84].dispatcher localJobs_class_1 581055
scalar FogNoLB.fog[84].server[0] rho 0.88678926229477
scalar FogNoLB.fog[84].server[0] congestionRatio 0
scalar FogNoLB.fog[84].server[0] totalJobs 581055
scalar FogNoLB.fog[84].server[0] droppedJobsQueue 545
scalar FogNoLB.fog[84].server[0] droppedJobsTimout 24214
scalar FogNoLB.fog[84].server[0] droppedJobsSLA 0
scalar FogNoLB.fog[84].server[0] droppedJobsTotal 24759
scalar FogNoLB.fog[85].dispatcher localJobs 581346
scalar FogNoLB.fog[85].dispatcher remoteJobs 0
scalar FogNoLB.fog[85].dispatcher probeQueries 0
scalar FogNoLB.fog[85].dispatcher probeAnswers 0
scalar FogNoLB.fog[85].dispatcher droppedJobsSLA 0
scalar FogNoLB.fog[85].dispatcher jobs_class_1 581346
scalar FogNoLB.fog[85].dispatcher localJobs_class_1 581346
scalar FogNoLB.fog[85].server[0] rho 0.88683217763901
scalar FogNoLB.fog[85].server[0] congestionRatio 0
scalar FogNoLB.fog[85].server[0] totalJobs 581346
scalar FogNoLB.fog[85].server[0] droppedJobsQueue 610
scalar FogNoLB.fog[85].server[0] droppedJobsTimout 24682
scalar FogNoLB.fog[85].server[0] droppedJobsSLA 0
scalar FogNoLB.fog[85].server[0] droppedJobsTotal 25292
scalar FogNoLB.fog[86].dispatcher localJobs 582642
scalar FogNoLB.fog[86].dispatcher remoteJobs 0
scalar FogNoLB.fog[86].dispatcher probeQueries 0
scalar FogNoLB.fog[86].dispatcher probeAnswers 0
scalar FogNoLB.fog[86].dispatcher droppedJobsSLA 0
scalar FogNoLB.fog[86].dispatcher jobs_class_1 582642
scalar FogNoLB.fog[86].dispatcher localJobs_class_1 582642
scalar FogNoLB.fog[86].server[0] rho 0.88885509967804
scalar FogNoLB.fog[86].server[0] congestionRatio 0
scalar FogNoLB.fog[86].server[0] totalJobs 582642
scalar FogNoLB.fog[86].server[0] droppedJobsQueue 611
scalar FogNoLB.fog[86].server[0] droppedJobsTimout 25073
scalar FogNoLB.fog[86].server[0] droppedJobsSLA 0
scalar FogNoLB.fog[86].server[0] droppedJobsTotal 25684
scalar FogNoLB.fog[87].dispatcher localJobs 582266
scalar FogNoLB.fog[87].dispatcher remoteJobs 0
scalar FogNoLB.fog[87].dispatcher probeQueries 0
scalar FogNoLB.fog[87].dispatcher probeAnswers 0
scalar FogNoLB.fog[87].dispatcher droppedJobsSLA 0
scalar FogNoLB.fog[87].dispatcher jobs_class_1 582266
scalar FogNoLB.fog[87].dispatcher localJobs_class_1 582266
scalar FogNoLB.fog[87].server[0] rho 0.88840961456299
scalar FogNoLB.fog[87].server[0] congestionRatio 0
scalar FogNoLB.fog[87].server[0] totalJobs 582266
scalar FogNoLB.fog[87].server[0] droppedJobsQueue 601
scalar FogNoLB.fog[87].server[0] droppedJobsTimout 24862
scalar FogNoLB.fog[87].server[0] droppedJobsSLA 0
scalar FogNoLB.fog[87].server[0] droppedJobsTotal 25463
scalar FogNoLB.fog[88].dispatcher localJobs 581409
scalar FogNoLB.fog[88].dispatcher remoteJobs 0
scalar FogNoLB.fog[88].dispatcher probeQueries 0
scalar FogNoLB.fog[88].dispatcher probeAnswers 0
scalar FogNoLB.fog[88].dispatcher droppedJobsSLA 0
scalar FogNoLB.fog[88].dispatcher jobs_class_1 581409
scalar FogNoLB.fog[88].dispatcher localJobs_class_1 581409
scalar FogNoLB.fog[88].server[0] rho 0.88744240999222
scalar FogNoLB.fog[88].server[0] congestionRatio 0
scalar FogNoLB.fog[88].server[0] totalJobs 581409
scalar FogNoLB.fog[88].server[0] droppedJobsQueue 548
scalar FogNoLB.fog[88].server[0] droppedJobsTimout 24217
scalar FogNoLB.fog[88].server[0] droppedJobsSLA 0
scalar FogNoLB.fog[88].server[0] droppedJobsTotal 24765
scalar FogNoLB.fog[89].dispatcher localJobs 580792
scalar FogNoLB.fog[89].dispatcher remoteJobs 0
scalar FogNoLB.fog[89].dispatcher probeQueries 0
scalar FogNoLB.fog[89].dispatcher probeAnswers 0
scalar FogNoLB.fog[89].dispatcher droppedJobsSLA 0
scalar FogNoLB.fog[89].dispatcher jobs_class_1 580792
scalar FogNoLB.fog[89].dispatcher localJobs_class_1 580792
scalar FogNoLB.fog[89].server[0] rho 0.88637709617615
scalar FogNoLB.fog[89].server[0] congestionRatio 0
scalar FogNoLB.fog[89].server[0] totalJobs 580792
scalar FogNoLB.fog[89].server[0] droppedJobsQueue 583
scalar FogNoLB.fog[89].server[0] droppedJobsTimout 24383
scalar FogNoLB.fog[89].server[0] droppedJobsSLA 0
scalar FogNoLB.fog[89].server[0] droppedJobsTotal 24966
scalar FogNoLB.fog[90].dispatcher localJobs 583173
scalar FogNoLB.fog[90].dispatcher remoteJobs 0
scalar FogNoLB.fog[90].dispatcher probeQueries 0
scalar FogNoLB.fog[90].dispatcher probeAnswers 0
scalar FogNoLB.fog[90].dispatcher droppedJobsSLA 0
scalar FogNoLB.fog[90].dispatcher jobs_class_1 583173
scalar FogNoLB.fog[90].dispatcher localJobs_class_1 583173
scalar FogNoLB.fog[90].server[0] rho 0.88970112800598
scalar FogNoLB.fog[90].server[0] congestionRatio 0
scalar FogNoLB.fog[90].server[0] totalJobs 583173
scalar FogNoLB.fog[90].server[0] droppedJobsQueue 568
scalar FogNoLB.fog[90].server[0] droppedJobsTimout 25449
scalar FogNoLB.fog[90].server[0] droppedJobsSLA 0
scalar FogNoLB.fog[90].server[0] droppedJobsTotal 26017
scalar FogNoLB.fog[91].dispatcher localJobs 582680
scalar FogNoLB.fog[91].dispatcher remoteJobs 0
scalar FogNoLB.fog[91].dispatcher probeQueries 0
scalar FogNoLB.fog[91].dispatcher probeAnswers 0
scalar FogNoLB.fog[91].dispatcher droppedJobsSLA 0
scalar FogNoLB.fog[91].dispatcher jobs_class_1 582680
scalar FogNoLB.fog[91].dispatcher localJobs_class_1 582680
scalar FogNoLB.fog[91].server[0] rho 0.88834953308105
scalar FogNoLB.fog[91].server[0] congestionRatio 0
scalar FogNoLB.fog[91].server[0] totalJobs 582680
scalar FogNoLB.fog[91].server[0] droppedJobsQueue 648
scalar FogNoLB.fog[91].server[0] droppedJobsTimout 25815
scalar FogNoLB.fog[91].server[0] droppedJobsSLA 0
scalar FogNoLB.fog[91].server[0] droppedJobsTotal 26463
scalar FogNoLB.fog[92].dispatcher localJobs 581290
scalar FogNoLB.fog[92].dispatcher remoteJobs 0
scalar FogNoLB.fog[92].dispatcher probeQueries 0
scalar FogNoLB.fog[92].dispatcher probeAnswers 0
scalar FogNoLB.fog[92].dispatcher droppedJobsSLA 0
scalar FogNoLB.fog[92].dispatcher jobs_class_1 581290
scalar FogNoLB.fog[92].dispatcher localJobs_class_1 581290
scalar FogNoLB.fog[92].server[0] rho 0.88723611831665
scalar FogNoLB.fog[92].server[0] congestionRatio 0
scalar FogNoLB.fog[92].server[0] totalJobs 581290
scalar FogNoLB.fog[92].server[0] droppedJobsQueue 571
scalar FogNoLB.fog[92].server[0] droppedJobsTimout 24281
scalar FogNoLB.fog[92].server[0] droppedJobsSLA 0
scalar FogNoLB.fog[92].server[0] droppedJobsTotal 24852
scalar FogNoLB.fog[93].dispatcher localJobs 581994
scalar FogNoLB.fog[93].dispatcher remoteJobs 0
scalar FogNoLB.fog[93].dispatcher probeQueries 0
scalar FogNoLB.fog[93].dispatcher probeAnswers 0
scalar FogNoLB.fog[93].dispatcher droppedJobsSLA 0
scalar FogNoLB.fog[93].dispatcher jobs_class_1 581994
scalar FogNoLB.fog[93].dispatcher localJobs_class_1 581994
scalar FogNoLB.fog[93].server[0] rho 0.88868260383606
scalar FogNoLB.fog[93].server[0] congestionRatio 0
scalar FogNoLB.fog[93].server[0] totalJobs 581994
scalar FogNoLB.fog[93].server[0] droppedJobsQueue 529
scalar FogNoLB.fog[93].server[0] droppedJobsTimout 23592
scalar FogNoLB.fog[93].server[0] droppedJobsSLA 0
scalar FogNoLB.fog[93].server[0] droppedJobsTotal 24121
scalar FogNoLB.fog[94].dispatcher localJobs 583074
scalar FogNoLB.fog[94].dispatcher remoteJobs 0
scalar FogNoLB.fog[94].dispatcher probeQueries 0
scalar FogNoLB.fog[94].dispatcher probeAnswers 0
scalar FogNoLB.fog[94].dispatcher droppedJobsSLA 0
scalar FogNoLB.fog[94].dispatcher jobs_class_1 583074
scalar FogNoLB.fog[94].dispatcher localJobs_class_1 583074
scalar FogNoLB.fog[94].server[0] rho 0.88909608125687
scalar FogNoLB.fog[94].server[0] congestionRatio 0
scalar FogNoLB.fog[94].server[0] totalJobs 583074
scalar FogNoLB.fog[94].server[0] droppedJobsQueue 575
scalar FogNoLB.fog[94].server[0] droppedJobsTimout 25892
scalar FogNoLB.fog[94].server[0] droppedJobsSLA 0
scalar FogNoLB.fog[94].server[0] droppedJobsTotal 26467
scalar FogNoLB.fog[95].dispatcher localJobs 580664
scalar FogNoLB.fog[95].dispatcher remoteJobs 0
scalar FogNoLB.fog[95].dispatcher probeQueries 0
scalar FogNoLB.fog[95].dispatcher probeAnswers 0
scalar FogNoLB.fog[95].dispatcher droppedJobsSLA 0
scalar FogNoLB.fog[95].dispatcher jobs_class_1 580664
scalar FogNoLB.fog[95].dispatcher localJobs_class_1 580664
scalar FogNoLB.fog[95].server[0] rho 0.88647907972336
scalar FogNoLB.fog[95].server[0] congestionRatio 0
scalar FogNoLB.fog[95].server[0] totalJobs 580664
scalar FogNoLB.fog[95].server[0] droppedJobsQueue 544
scalar FogNoLB.fog[95].server[0] droppedJobsTimout 23853
scalar FogNoLB.fog[95].server[0] droppedJobsSLA 0
scalar FogNoLB.fog[95].server[0] droppedJobsTotal 24397
scalar FogNoLB.fog[96].dispatcher localJobs 582661
scalar FogNoLB.fog[96].dispatcher remoteJobs 0
scalar FogNoLB.fog[96].dispatcher probeQueries 0
scalar FogNoLB.fog[96].dispatcher probeAnswers 0
scalar FogNoLB.fog[96].dispatcher droppedJobsSLA 0
scalar FogNoLB.fog[96].dispatcher jobs_class_1 582661
scalar FogNoLB.fog[96].dispatcher localJobs_class_1 582661
scalar FogNoLB.fog[96].server[0] rho 0.88943290710449
scalar FogNoLB.fog[96].server[0] congestionRatio 0
scalar FogNoLB.fog[96].server[0] totalJobs 582661
scalar FogNoLB.fog[96].server[0] droppedJobsQueue 487
scalar FogNoLB.fog[96].server[0] droppedJobsTimout 24371
scalar FogNoLB.fog[96].server[0] droppedJobsSLA 0
scalar FogNoLB.fog[96].server[0] droppedJobsTotal 24858
scalar FogNoLB.fog[97].dispatcher localJobs 582039
scalar FogNoLB.fog[97].dispatcher remoteJobs 0
scalar FogNoLB.fog[97].dispatcher probeQueries 0
scalar FogNoLB.fog[97].dispatcher probeAnswers 0
scalar FogNoLB.fog[97].dispatcher droppedJobsSLA 0
scalar FogNoLB.fog[97].dispatcher jobs_class_1 582039
scalar FogNoLB.fog[97].dispatcher localJobs_class_1 582039
scalar FogNoLB.fog[97].server[0] rho 0.88841187953949
scalar FogNoLB.fog[97].server[0] congestionRatio 0
scalar FogNoLB.fog[97].server[0] totalJobs 582039
scalar FogNoLB.fog[97].server[0] droppedJobsQueue 533
scalar FogNoLB.fog[97].server[0] droppedJobsTimout 24237
scalar FogNoLB.fog[97].server[0] droppedJobsSLA 0
scalar FogNoLB.fog[97].server[0] droppedJobsTotal 24770
scalar FogNoLB.fog[98].dispatcher localJobs 581933
scalar FogNoLB.fog[98].dispatcher remoteJobs 0
scalar FogNoLB.fog[98].dispatcher probeQueries 0
scalar FogNoLB.fog[98].dispatcher probeAnswers 0
scalar FogNoLB.fog[98].dispatcher droppedJobsSLA 0
scalar FogNoLB.fog[98].dispatcher jobs_class_1 581933
scalar FogNoLB.fog[98].dispatcher localJobs_class_1 581933
scalar FogNoLB.fog[98].server[0] rho 0.88779848814011
scalar FogNoLB.fog[98].server[0] congestionRatio 0
scalar FogNoLB.fog[98].server[0] totalJobs 581933
scalar FogNoLB.fog[98].server[0] droppedJobsQueue 587
scalar FogNoLB.fog[98].server[0] droppedJobsTimout 25161
scalar FogNoLB.fog[98].server[0] droppedJobsSLA 0
scalar FogNoLB.fog[98].server[0] droppedJobsTotal 25748
scalar FogNoLB.fog[99].dispatcher localJobs 580892
scalar FogNoLB.fog[99].dispatcher remoteJobs 0
scalar FogNoLB.fog[99].dispatcher probeQueries 0
scalar FogNoLB.fog[99].dispatcher probeAnswers 0
scalar FogNoLB.fog[99].dispatcher droppedJobsSLA 0
scalar FogNoLB.fog[99].dispatcher jobs_class_1 580892
scalar FogNoLB.fog[99].dispatcher localJobs_class_1 580892
scalar FogNoLB.fog[99].server[0] rho 0.88714724779129
scalar FogNoLB.fog[99].server[0] congestionRatio 0
scalar FogNoLB.fog[99].server[0] totalJobs 580892
scalar FogNoLB.fog[99].server[0] droppedJobsQueue 528
scalar FogNoLB.fog[99].server[0] droppedJobsTimout 23503
scalar FogNoLB.fog[99].server[0] droppedJobsSLA 0
scalar FogNoLB.fog[99].server[0] droppedJobsTotal 24031
scalar FogNoLB.sink avg_responseTime_1 0.065524874912486
scalar FogNoLB.sink p90_responseTime_1 0.014868582243
scalar FogNoLB.sink med_responseTime_1 0.014868582243
scalar FogNoLB.sink avg_delayTime_1 0
scalar FogNoLB.sink p90_delayTime_1 0
scalar FogNoLB.sink med_delayTime_1 0
scalar FogNoLB.sink avg_queuingTime_1 0.048825147895406
scalar FogNoLB.sink p90_queuingTime_1 0
scalar FogNoLB.sink med_queuingTime_1 0
scalar FogNoLB.sink avg_serviceTime_1 0.016699727017099
scalar FogNoLB.sink p90_serviceTime_1 0.014638923562
scalar FogNoLB.sink med_serviceTime_1 0.014638923562
scalar FogNoLB.sink avg_balancerTime_1 0
scalar FogNoLB.sink p90_balancerTime_1 0
scalar FogNoLB.sink med_balancerTime_1 0
scalar FogNoLB.sink avg_balancerCount_1 1
scalar FogNoLB.sink p90_balancerCount_1 1
scalar FogNoLB.sink med_balancerCount_1 1

