version 2
run Fog-mul_001-rho_08-thr_16-2-20190711-19:57:29-54452
attr configname Fog-mul_001-rho_08-thr_16
attr datetime 20190711-19:57:29
attr experiment Fog-mul_001-rho_08-thr_16
attr inifile FogQueueLen.ini
attr iterationvars ""
attr iterationvarsf ""
attr measurement ""
attr network FogNoLB
attr processid 54452
attr repetition 2
attr replication #2
attr resultdir results
attr runnumber 2
attr seedset 2
param FogNoLB.proctimeMul 0.01
param FogNoLB.rho 0.8
param FogNoLB.fog[*].server[*].capacity 16
param FogNoLB.nSources 100
param FogNoLB.rho 0.9
param FogNoLB.proctimeMul 1.0
param FogNoLB.source[*].appId 1
param FogNoLB.fog[*].nServers 1
param FogNoLB.fog[*].dispatcher.fanOut 1
param FogNoLB.fog[*].server[*].timeSlice -1s
param FogNoLB.fog[*].server[*].capacity 5
param FogNoLB.fog[*].server[*].fifo true
param FogNoLB.fog[*].server[*].maxServiceTime -1s

scalar FogNoLB.fog[0].dispatcher localJobs 517837
scalar FogNoLB.fog[0].dispatcher remoteJobs 0
scalar FogNoLB.fog[0].dispatcher probeQueries 0
scalar FogNoLB.fog[0].dispatcher probeAnswers 0
scalar FogNoLB.fog[0].dispatcher droppedJobsSLA 0
scalar FogNoLB.fog[0].dispatcher jobs_class_1 517837
scalar FogNoLB.fog[0].dispatcher localJobs_class_1 517837
scalar FogNoLB.fog[0].server[0] rho 0.79900938272476
scalar FogNoLB.fog[0].server[0] congestionRatio 0
scalar FogNoLB.fog[0].server[0] totalJobs 517837
scalar FogNoLB.fog[0].server[0] droppedJobsQueue 15
scalar FogNoLB.fog[0].server[0] droppedJobsTimout 4225
scalar FogNoLB.fog[0].server[0] droppedJobsSLA 0
scalar FogNoLB.fog[0].server[0] droppedJobsTotal 4240
scalar FogNoLB.fog[1].dispatcher localJobs 517160
scalar FogNoLB.fog[1].dispatcher remoteJobs 0
scalar FogNoLB.fog[1].dispatcher probeQueries 0
scalar FogNoLB.fog[1].dispatcher probeAnswers 0
scalar FogNoLB.fog[1].dispatcher droppedJobsSLA 0
scalar FogNoLB.fog[1].dispatcher jobs_class_1 517160
scalar FogNoLB.fog[1].dispatcher localJobs_class_1 517160
scalar FogNoLB.fog[1].server[0] rho 0.79782027006149
scalar FogNoLB.fog[1].server[0] congestionRatio 0
scalar FogNoLB.fog[1].server[0] totalJobs 517160
scalar FogNoLB.fog[1].server[0] droppedJobsQueue 24
scalar FogNoLB.fog[1].server[0] droppedJobsTimout 4369
scalar FogNoLB.fog[1].server[0] droppedJobsSLA 0
scalar FogNoLB.fog[1].server[0] droppedJobsTotal 4393
scalar FogNoLB.fog[2].dispatcher localJobs 515543
scalar FogNoLB.fog[2].dispatcher remoteJobs 0
scalar FogNoLB.fog[2].dispatcher probeQueries 0
scalar FogNoLB.fog[2].dispatcher probeAnswers 0
scalar FogNoLB.fog[2].dispatcher droppedJobsSLA 0
scalar FogNoLB.fog[2].dispatcher jobs_class_1 515543
scalar FogNoLB.fog[2].dispatcher localJobs_class_1 515543
scalar FogNoLB.fog[2].server[0] rho 0.79531812667847
scalar FogNoLB.fog[2].server[0] congestionRatio 0
scalar FogNoLB.fog[2].server[0] totalJobs 515543
scalar FogNoLB.fog[2].server[0] droppedJobsQueue 20
scalar FogNoLB.fog[2].server[0] droppedJobsTimout 4533
scalar FogNoLB.fog[2].server[0] droppedJobsSLA 0
scalar FogNoLB.fog[2].server[0] droppedJobsTotal 4553
scalar FogNoLB.fog[3].dispatcher localJobs 517465
scalar FogNoLB.fog[3].dispatcher remoteJobs 0
scalar FogNoLB.fog[3].dispatcher probeQueries 0
scalar FogNoLB.fog[3].dispatcher probeAnswers 0
scalar FogNoLB.fog[3].dispatcher droppedJobsSLA 0
scalar FogNoLB.fog[3].dispatcher jobs_class_1 517465
scalar FogNoLB.fog[3].dispatcher localJobs_class_1 517465
scalar FogNoLB.fog[3].server[0] rho 0.79815471172333
scalar FogNoLB.fog[3].server[0] congestionRatio 0
scalar FogNoLB.fog[3].server[0] totalJobs 517465
scalar FogNoLB.fog[3].server[0] droppedJobsQueue 25
scalar FogNoLB.fog[3].server[0] droppedJobsTimout 4565
scalar FogNoLB.fog[3].server[0] droppedJobsSLA 0
scalar FogNoLB.fog[3].server[0] droppedJobsTotal 4590
scalar FogNoLB.fog[4].dispatcher localJobs 517836
scalar FogNoLB.fog[4].dispatcher remoteJobs 0
scalar FogNoLB.fog[4].dispatcher probeQueries 0
scalar FogNoLB.fog[4].dispatcher probeAnswers 0
scalar FogNoLB.fog[4].dispatcher droppedJobsSLA 0
scalar FogNoLB.fog[4].dispatcher jobs_class_1 517836
scalar FogNoLB.fog[4].dispatcher localJobs_class_1 517836
scalar FogNoLB.fog[4].server[0] rho 0.79877662658691
scalar FogNoLB.fog[4].server[0] congestionRatio 0
scalar FogNoLB.fog[4].server[0] totalJobs 517836
scalar FogNoLB.fog[4].server[0] droppedJobsQueue 16
scalar FogNoLB.fog[4].server[0] droppedJobsTimout 4693
scalar FogNoLB.fog[4].server[0] droppedJobsSLA 0
scalar FogNoLB.fog[4].server[0] droppedJobsTotal 4709
scalar FogNoLB.fog[5].dispatcher localJobs 517368
scalar FogNoLB.fog[5].dispatcher remoteJobs 0
scalar FogNoLB.fog[5].dispatcher probeQueries 0
scalar FogNoLB.fog[5].dispatcher probeAnswers 0
scalar FogNoLB.fog[5].dispatcher droppedJobsSLA 0
scalar FogNoLB.fog[5].dispatcher jobs_class_1 517368
scalar FogNoLB.fog[5].dispatcher localJobs_class_1 517368
scalar FogNoLB.fog[5].server[0] rho 0.79813402891159
scalar FogNoLB.fog[5].server[0] congestionRatio 0
scalar FogNoLB.fog[5].server[0] totalJobs 517368
scalar FogNoLB.fog[5].server[0] droppedJobsQueue 31
scalar FogNoLB.fog[5].server[0] droppedJobsTimout 4517
scalar FogNoLB.fog[5].server[0] droppedJobsSLA 0
scalar FogNoLB.fog[5].server[0] droppedJobsTotal 4548
scalar FogNoLB.fog[6].dispatcher localJobs 517802
scalar FogNoLB.fog[6].dispatcher remoteJobs 0
scalar FogNoLB.fog[6].dispatcher probeQueries 0
scalar FogNoLB.fog[6].dispatcher probeAnswers 0
scalar FogNoLB.fog[6].dispatcher droppedJobsSLA 0
scalar FogNoLB.fog[6].dispatcher jobs_class_1 517802
scalar FogNoLB.fog[6].dispatcher localJobs_class_1 517802
scalar FogNoLB.fog[6].server[0] rho 0.7988600730896
scalar FogNoLB.fog[6].server[0] congestionRatio 0
scalar FogNoLB.fog[6].server[0] totalJobs 517802
scalar FogNoLB.fog[6].server[0] droppedJobsQueue 29
scalar FogNoLB.fog[6].server[0] droppedJobsTimout 4264
scalar FogNoLB.fog[6].server[0] droppedJobsSLA 0
scalar FogNoLB.fog[6].server[0] droppedJobsTotal 4293
scalar FogNoLB.fog[7].dispatcher localJobs 516997
scalar FogNoLB.fog[7].dispatcher remoteJobs 0
scalar FogNoLB.fog[7].dispatcher probeQueries 0
scalar FogNoLB.fog[7].dispatcher probeAnswers 0
scalar FogNoLB.fog[7].dispatcher droppedJobsSLA 0
scalar FogNoLB.fog[7].dispatcher jobs_class_1 516997
scalar FogNoLB.fog[7].dispatcher localJobs_class_1 516997
scalar FogNoLB.fog[7].server[0] rho 0.79755055904388
scalar FogNoLB.fog[7].server[0] congestionRatio 0
scalar FogNoLB.fog[7].server[0] totalJobs 516997
scalar FogNoLB.fog[7].server[0] droppedJobsQueue 21
scalar FogNoLB.fog[7].server[0] droppedJobsTimout 4455
scalar FogNoLB.fog[7].server[0] droppedJobsSLA 0
scalar FogNoLB.fog[7].server[0] droppedJobsTotal 4476
scalar FogNoLB.fog[8].dispatcher localJobs 517572
scalar FogNoLB.fog[8].dispatcher remoteJobs 0
scalar FogNoLB.fog[8].dispatcher probeQueries 0
scalar FogNoLB.fog[8].dispatcher probeAnswers 0
scalar FogNoLB.fog[8].dispatcher droppedJobsSLA 0
scalar FogNoLB.fog[8].dispatcher jobs_class_1 517572
scalar FogNoLB.fog[8].dispatcher localJobs_class_1 517572
scalar FogNoLB.fog[8].server[0] rho 0.79850119352341
scalar FogNoLB.fog[8].server[0] congestionRatio 0
scalar FogNoLB.fog[8].server[0] totalJobs 517572
scalar FogNoLB.fog[8].server[0] droppedJobsQueue 25
scalar FogNoLB.fog[8].server[0] droppedJobsTimout 4328
scalar FogNoLB.fog[8].server[0] droppedJobsSLA 0
scalar FogNoLB.fog[8].server[0] droppedJobsTotal 4353
scalar FogNoLB.fog[9].dispatcher localJobs 516898
scalar FogNoLB.fog[9].dispatcher remoteJobs 0
scalar FogNoLB.fog[9].dispatcher probeQueries 0
scalar FogNoLB.fog[9].dispatcher probeAnswers 0
scalar FogNoLB.fog[9].dispatcher droppedJobsSLA 0
scalar FogNoLB.fog[9].dispatcher jobs_class_1 516898
scalar FogNoLB.fog[9].dispatcher localJobs_class_1 516898
scalar FogNoLB.fog[9].server[0] rho 0.79751467704773
scalar FogNoLB.fog[9].server[0] congestionRatio 0
scalar FogNoLB.fog[9].server[0] totalJobs 516898
scalar FogNoLB.fog[9].server[0] droppedJobsQueue 21
scalar FogNoLB.fog[9].server[0] droppedJobsTimout 4208
scalar FogNoLB.fog[9].server[0] droppedJobsSLA 0
scalar FogNoLB.fog[9].server[0] droppedJobsTotal 4229
scalar FogNoLB.fog[10].dispatcher localJobs 517503
scalar FogNoLB.fog[10].dispatcher remoteJobs 0
scalar FogNoLB.fog[10].dispatcher probeQueries 0
scalar FogNoLB.fog[10].dispatcher probeAnswers 0
scalar FogNoLB.fog[10].dispatcher droppedJobsSLA 0
scalar FogNoLB.fog[10].dispatcher jobs_class_1 517503
scalar FogNoLB.fog[10].dispatcher localJobs_class_1 517503
scalar FogNoLB.fog[10].server[0] rho 0.79831945896149
scalar FogNoLB.fog[10].server[0] congestionRatio 0
scalar FogNoLB.fog[10].server[0] totalJobs 517503
scalar FogNoLB.fog[10].server[0] droppedJobsQueue 29
scalar FogNoLB.fog[10].server[0] droppedJobsTimout 4410
scalar FogNoLB.fog[10].server[0] droppedJobsSLA 0
scalar FogNoLB.fog[10].server[0] droppedJobsTotal 4439
scalar FogNoLB.fog[11].dispatcher localJobs 517342
scalar FogNoLB.fog[11].dispatcher remoteJobs 0
scalar FogNoLB.fog[11].dispatcher probeQueries 0
scalar FogNoLB.fog[11].dispatcher probeAnswers 0
scalar FogNoLB.fog[11].dispatcher droppedJobsSLA 0
scalar FogNoLB.fog[11].dispatcher jobs_class_1 517342
scalar FogNoLB.fog[11].dispatcher localJobs_class_1 517342
scalar FogNoLB.fog[11].server[0] rho 0.79774737358093
scalar FogNoLB.fog[11].server[0] congestionRatio 0
scalar FogNoLB.fog[11].server[0] totalJobs 517342
scalar FogNoLB.fog[11].server[0] droppedJobsQueue 38
scalar FogNoLB.fog[11].server[0] droppedJobsTimout 5188
scalar FogNoLB.fog[11].server[0] droppedJobsSLA 0
scalar FogNoLB.fog[11].server[0] droppedJobsTotal 5226
scalar FogNoLB.fog[12].dispatcher localJobs 517077
scalar FogNoLB.fog[12].dispatcher remoteJobs 0
scalar FogNoLB.fog[12].dispatcher probeQueries 0
scalar FogNoLB.fog[12].dispatcher probeAnswers 0
scalar FogNoLB.fog[12].dispatcher droppedJobsSLA 0
scalar FogNoLB.fog[12].dispatcher jobs_class_1 517077
scalar FogNoLB.fog[12].dispatcher localJobs_class_1 517077
scalar FogNoLB.fog[12].server[0] rho 0.79767149686813
scalar FogNoLB.fog[12].server[0] congestionRatio 0
scalar FogNoLB.fog[12].server[0] totalJobs 517077
scalar FogNoLB.fog[12].server[0] droppedJobsQueue 35
scalar FogNoLB.fog[12].server[0] droppedJobsTimout 4493
scalar FogNoLB.fog[12].server[0] droppedJobsSLA 0
scalar FogNoLB.fog[12].server[0] droppedJobsTotal 4528
scalar FogNoLB.fog[13].dispatcher localJobs 517900
scalar FogNoLB.fog[13].dispatcher remoteJobs 0
scalar FogNoLB.fog[13].dispatcher probeQueries 0
scalar FogNoLB.fog[13].dispatcher probeAnswers 0
scalar FogNoLB.fog[13].dispatcher droppedJobsSLA 0
scalar FogNoLB.fog[13].dispatcher jobs_class_1 517900
scalar FogNoLB.fog[13].dispatcher localJobs_class_1 517900
scalar FogNoLB.fog[13].server[0] rho 0.79881286621094
scalar FogNoLB.fog[13].server[0] congestionRatio 0
scalar FogNoLB.fog[13].server[0] totalJobs 517900
scalar FogNoLB.fog[13].server[0] droppedJobsQueue 22
scalar FogNoLB.fog[13].server[0] droppedJobsTimout 4720
scalar FogNoLB.fog[13].server[0] droppedJobsSLA 0
scalar FogNoLB.fog[13].server[0] droppedJobsTotal 4742
scalar FogNoLB.fog[14].dispatcher localJobs 518440
scalar FogNoLB.fog[14].dispatcher remoteJobs 0
scalar FogNoLB.fog[14].dispatcher probeQueries 0
scalar FogNoLB.fog[14].dispatcher probeAnswers 0
scalar FogNoLB.fog[14].dispatcher droppedJobsSLA 0
scalar FogNoLB.fog[14].dispatcher jobs_class_1 518440
scalar FogNoLB.fog[14].dispatcher localJobs_class_1 518440
scalar FogNoLB.fog[14].server[0] rho 0.79969680309296
scalar FogNoLB.fog[14].server[0] congestionRatio 0
scalar FogNoLB.fog[14].server[0] totalJobs 518440
scalar FogNoLB.fog[14].server[0] droppedJobsQueue 27
scalar FogNoLB.fog[14].server[0] droppedJobsTimout 4614
scalar FogNoLB.fog[14].server[0] droppedJobsSLA 0
scalar FogNoLB.fog[14].server[0] droppedJobsTotal 4641
scalar FogNoLB.fog[15].dispatcher localJobs 516374
scalar FogNoLB.fog[15].dispatcher remoteJobs 0
scalar FogNoLB.fog[15].dispatcher probeQueries 0
scalar FogNoLB.fog[15].dispatcher probeAnswers 0
scalar FogNoLB.fog[15].dispatcher droppedJobsSLA 0
scalar FogNoLB.fog[15].dispatcher jobs_class_1 516374
scalar FogNoLB.fog[15].dispatcher localJobs_class_1 516374
scalar FogNoLB.fog[15].server[0] rho 0.7967022061348
scalar FogNoLB.fog[15].server[0] congestionRatio 0
scalar FogNoLB.fog[15].server[0] totalJobs 516374
scalar FogNoLB.fog[15].server[0] droppedJobsQueue 21
scalar FogNoLB.fog[15].server[0] droppedJobsTimout 4248
scalar FogNoLB.fog[15].server[0] droppedJobsSLA 0
scalar FogNoLB.fog[15].server[0] droppedJobsTotal 4269
scalar FogNoLB.fog[16].dispatcher localJobs 518345
scalar FogNoLB.fog[16].dispatcher remoteJobs 0
scalar FogNoLB.fog[16].dispatcher probeQueries 0
scalar FogNoLB.fog[16].dispatcher probeAnswers 0
scalar FogNoLB.fog[16].dispatcher droppedJobsSLA 0
scalar FogNoLB.fog[16].dispatcher jobs_class_1 518345
scalar FogNoLB.fog[16].dispatcher localJobs_class_1 518345
scalar FogNoLB.fog[16].server[0] rho 0.79975211620331
scalar FogNoLB.fog[16].server[0] congestionRatio 0
scalar FogNoLB.fog[16].server[0] totalJobs 518345
scalar FogNoLB.fog[16].server[0] droppedJobsQueue 13
scalar FogNoLB.fog[16].server[0] droppedJobsTimout 4217
scalar FogNoLB.fog[16].server[0] droppedJobsSLA 0
scalar FogNoLB.fog[16].server[0] droppedJobsTotal 4230
scalar FogNoLB.fog[17].dispatcher localJobs 517281
scalar FogNoLB.fog[17].dispatcher remoteJobs 0
scalar FogNoLB.fog[17].dispatcher probeQueries 0
scalar FogNoLB.fog[17].dispatcher probeAnswers 0
scalar FogNoLB.fog[17].dispatcher droppedJobsSLA 0
scalar FogNoLB.fog[17].dispatcher jobs_class_1 517281
scalar FogNoLB.fog[17].dispatcher localJobs_class_1 517281
scalar FogNoLB.fog[17].server[0] rho 0.7979302406311
scalar FogNoLB.fog[17].server[0] congestionRatio 0
scalar FogNoLB.fog[17].server[0] totalJobs 517281
scalar FogNoLB.fog[17].server[0] droppedJobsQueue 20
scalar FogNoLB.fog[17].server[0] droppedJobsTimout 4590
scalar FogNoLB.fog[17].server[0] droppedJobsSLA 0
scalar FogNoLB.fog[17].server[0] droppedJobsTotal 4610
scalar FogNoLB.fog[18].dispatcher localJobs 517340
scalar FogNoLB.fog[18].dispatcher remoteJobs 0
scalar FogNoLB.fog[18].dispatcher probeQueries 0
scalar FogNoLB.fog[18].dispatcher probeAnswers 0
scalar FogNoLB.fog[18].dispatcher droppedJobsSLA 0
scalar FogNoLB.fog[18].dispatcher jobs_class_1 517340
scalar FogNoLB.fog[18].dispatcher localJobs_class_1 517340
scalar FogNoLB.fog[18].server[0] rho 0.79802191257477
scalar FogNoLB.fog[18].server[0] congestionRatio 0
scalar FogNoLB.fog[18].server[0] totalJobs 517340
scalar FogNoLB.fog[18].server[0] droppedJobsQueue 34
scalar FogNoLB.fog[18].server[0] droppedJobsTimout 4602
scalar FogNoLB.fog[18].server[0] droppedJobsSLA 0
scalar FogNoLB.fog[18].server[0] droppedJobsTotal 4636
scalar FogNoLB.fog[19].dispatcher localJobs 517068
scalar FogNoLB.fog[19].dispatcher remoteJobs 0
scalar FogNoLB.fog[19].dispatcher probeQueries 0
scalar FogNoLB.fog[19].dispatcher probeAnswers 0
scalar FogNoLB.fog[19].dispatcher droppedJobsSLA 0
scalar FogNoLB.fog[19].dispatcher jobs_class_1 517068
scalar FogNoLB.fog[19].dispatcher localJobs_class_1 517068
scalar FogNoLB.fog[19].server[0] rho 0.79761338233948
scalar FogNoLB.fog[19].server[0] congestionRatio 0
scalar FogNoLB.fog[19].server[0] totalJobs 517068
scalar FogNoLB.fog[19].server[0] droppedJobsQueue 31
scalar FogNoLB.fog[19].server[0] droppedJobsTimout 4485
scalar FogNoLB.fog[19].server[0] droppedJobsSLA 0
scalar FogNoLB.fog[19].server[0] droppedJobsTotal 4516
scalar FogNoLB.fog[20].dispatcher localJobs 518298
scalar FogNoLB.fog[20].dispatcher remoteJobs 0
scalar FogNoLB.fog[20].dispatcher probeQueries 0
scalar FogNoLB.fog[20].dispatcher probeAnswers 0
scalar FogNoLB.fog[20].dispatcher droppedJobsSLA 0
scalar FogNoLB.fog[20].dispatcher jobs_class_1 518298
scalar FogNoLB.fog[20].dispatcher localJobs_class_1 518298
scalar FogNoLB.fog[20].server[0] rho 0.79949390888214
scalar FogNoLB.fog[20].server[0] congestionRatio 0
scalar FogNoLB.fog[20].server[0] totalJobs 518298
scalar FogNoLB.fog[20].server[0] droppedJobsQueue 25
scalar FogNoLB.fog[20].server[0] droppedJobsTimout 4553
scalar FogNoLB.fog[20].server[0] droppedJobsSLA 0
scalar FogNoLB.fog[20].server[0] droppedJobsTotal 4578
scalar FogNoLB.fog[21].dispatcher localJobs 518391
scalar FogNoLB.fog[21].dispatcher remoteJobs 0
scalar FogNoLB.fog[21].dispatcher probeQueries 0
scalar FogNoLB.fog[21].dispatcher probeAnswers 0
scalar FogNoLB.fog[21].dispatcher droppedJobsSLA 0
scalar FogNoLB.fog[21].dispatcher jobs_class_1 518391
scalar FogNoLB.fog[21].dispatcher localJobs_class_1 518391
scalar FogNoLB.fog[21].server[0] rho 0.79976123571396
scalar FogNoLB.fog[21].server[0] congestionRatio 0
scalar FogNoLB.fog[21].server[0] totalJobs 518391
scalar FogNoLB.fog[21].server[0] droppedJobsQueue 19
scalar FogNoLB.fog[21].server[0] droppedJobsTimout 4470
scalar FogNoLB.fog[21].server[0] droppedJobsSLA 0
scalar FogNoLB.fog[21].server[0] droppedJobsTotal 4489
scalar FogNoLB.fog[22].dispatcher localJobs 518110
scalar FogNoLB.fog[22].dispatcher remoteJobs 0
scalar FogNoLB.fog[22].dispatcher probeQueries 0
scalar FogNoLB.fog[22].dispatcher probeAnswers 0
scalar FogNoLB.fog[22].dispatcher droppedJobsSLA 0
scalar FogNoLB.fog[22].dispatcher jobs_class_1 518110
scalar FogNoLB.fog[22].dispatcher localJobs_class_1 518110
scalar FogNoLB.fog[22].server[0] rho 0.7992736697197
scalar FogNoLB.fog[22].server[0] congestionRatio 0
scalar FogNoLB.fog[22].server[0] totalJobs 518110
scalar FogNoLB.fog[22].server[0] droppedJobsQueue 19
scalar FogNoLB.fog[22].server[0] droppedJobsTimout 4354
scalar FogNoLB.fog[22].server[0] droppedJobsSLA 0
scalar FogNoLB.fog[22].server[0] droppedJobsTotal 4373
scalar FogNoLB.fog[23].dispatcher localJobs 516973
scalar FogNoLB.fog[23].dispatcher remoteJobs 0
scalar FogNoLB.fog[23].dispatcher probeQueries 0
scalar FogNoLB.fog[23].dispatcher probeAnswers 0
scalar FogNoLB.fog[23].dispatcher droppedJobsSLA 0
scalar FogNoLB.fog[23].dispatcher jobs_class_1 516973
scalar FogNoLB.fog[23].dispatcher localJobs_class_1 516973
scalar FogNoLB.fog[23].server[0] rho 0.79749327898026
scalar FogNoLB.fog[23].server[0] congestionRatio 0
scalar FogNoLB.fog[23].server[0] totalJobs 516973
scalar FogNoLB.fog[23].server[0] droppedJobsQueue 21
scalar FogNoLB.fog[23].server[0] droppedJobsTimout 4369
scalar FogNoLB.fog[23].server[0] droppedJobsSLA 0
scalar FogNoLB.fog[23].server[0] droppedJobsTotal 4390
scalar FogNoLB.fog[24].dispatcher localJobs 516810
scalar FogNoLB.fog[24].dispatcher remoteJobs 0
scalar FogNoLB.fog[24].dispatcher probeQueries 0
scalar FogNoLB.fog[24].dispatcher probeAnswers 0
scalar FogNoLB.fog[24].dispatcher droppedJobsSLA 0
scalar FogNoLB.fog[24].dispatcher jobs_class_1 516810
scalar FogNoLB.fog[24].dispatcher localJobs_class_1 516810
scalar FogNoLB.fog[24].server[0] rho 0.79725122451782
scalar FogNoLB.fog[24].server[0] congestionRatio 0
scalar FogNoLB.fog[24].server[0] totalJobs 516810
scalar FogNoLB.fog[24].server[0] droppedJobsQueue 17
scalar FogNoLB.fog[24].server[0] droppedJobsTimout 4591
scalar FogNoLB.fog[24].server[0] droppedJobsSLA 0
scalar FogNoLB.fog[24].server[0] droppedJobsTotal 4608
scalar FogNoLB.fog[25].dispatcher localJobs 516745
scalar FogNoLB.fog[25].dispatcher remoteJobs 0
scalar FogNoLB.fog[25].dispatcher probeQueries 0
scalar FogNoLB.fog[25].dispatcher probeAnswers 0
scalar FogNoLB.fog[25].dispatcher droppedJobsSLA 0
scalar FogNoLB.fog[25].dispatcher jobs_class_1 516745
scalar FogNoLB.fog[25].dispatcher localJobs_class_1 516745
scalar FogNoLB.fog[25].server[0] rho 0.79704624414444
scalar FogNoLB.fog[25].server[0] congestionRatio 0
scalar FogNoLB.fog[25].server[0] totalJobs 516745
scalar FogNoLB.fog[25].server[0] droppedJobsQueue 23
scalar FogNoLB.fog[25].server[0] droppedJobsTimout 4591
scalar FogNoLB.fog[25].server[0] droppedJobsSLA 0
scalar FogNoLB.fog[25].server[0] droppedJobsTotal 4614
scalar FogNoLB.fog[26].dispatcher localJobs 517576
scalar FogNoLB.fog[26].dispatcher remoteJobs 0
scalar FogNoLB.fog[26].dispatcher probeQueries 0
scalar FogNoLB.fog[26].dispatcher probeAnswers 0
scalar FogNoLB.fog[26].dispatcher droppedJobsSLA 0
scalar FogNoLB.fog[26].dispatcher jobs_class_1 517576
scalar FogNoLB.fog[26].dispatcher localJobs_class_1 517576
scalar FogNoLB.fog[26].server[0] rho 0.79857206344604
scalar FogNoLB.fog[26].server[0] congestionRatio 0
scalar FogNoLB.fog[26].server[0] totalJobs 517576
scalar FogNoLB.fog[26].server[0] droppedJobsQueue 13
scalar FogNoLB.fog[26].server[0] droppedJobsTimout 4217
scalar FogNoLB.fog[26].server[0] droppedJobsSLA 0
scalar FogNoLB.fog[26].server[0] droppedJobsTotal 4230
scalar FogNoLB.fog[27].dispatcher localJobs 517563
scalar FogNoLB.fog[27].dispatcher remoteJobs 0
scalar FogNoLB.fog[27].dispatcher probeQueries 0
scalar FogNoLB.fog[27].dispatcher probeAnswers 0
scalar FogNoLB.fog[27].dispatcher droppedJobsSLA 0
scalar FogNoLB.fog[27].dispatcher jobs_class_1 517563
scalar FogNoLB.fog[27].dispatcher localJobs_class_1 517563
scalar FogNoLB.fog[27].server[0] rho 0.79852449893951
scalar FogNoLB.fog[27].server[0] congestionRatio 0
scalar FogNoLB.fog[27].server[0] totalJobs 517563
scalar FogNoLB.fog[27].server[0] droppedJobsQueue 21
scalar FogNoLB.fog[27].server[0] droppedJobsTimout 4295
scalar FogNoLB.fog[27].server[0] droppedJobsSLA 0
scalar FogNoLB.fog[27].server[0] droppedJobsTotal 4316
scalar FogNoLB.fog[28].dispatcher localJobs 517304
scalar FogNoLB.fog[28].dispatcher remoteJobs 0
scalar FogNoLB.fog[28].dispatcher probeQueries 0
scalar FogNoLB.fog[28].dispatcher probeAnswers 0
scalar FogNoLB.fog[28].dispatcher droppedJobsSLA 0
scalar FogNoLB.fog[28].dispatcher jobs_class_1 517304
scalar FogNoLB.fog[28].dispatcher localJobs_class_1 517304
scalar FogNoLB.fog[28].server[0] rho 0.79801970720291
scalar FogNoLB.fog[28].server[0] congestionRatio 0
scalar FogNoLB.fog[28].server[0] totalJobs 517304
scalar FogNoLB.fog[28].server[0] droppedJobsQueue 10
scalar FogNoLB.fog[28].server[0] droppedJobsTimout 4538
scalar FogNoLB.fog[28].server[0] droppedJobsSLA 0
scalar FogNoLB.fog[28].server[0] droppedJobsTotal 4548
scalar FogNoLB.fog[29].dispatcher localJobs 517224
scalar FogNoLB.fog[29].dispatcher remoteJobs 0
scalar FogNoLB.fog[29].dispatcher probeQueries 0
scalar FogNoLB.fog[29].dispatcher probeAnswers 0
scalar FogNoLB.fog[29].dispatcher droppedJobsSLA 0
scalar FogNoLB.fog[29].dispatcher jobs_class_1 517224
scalar FogNoLB.fog[29].dispatcher localJobs_class_1 517224
scalar FogNoLB.fog[29].server[0] rho 0.79790890216827
scalar FogNoLB.fog[29].server[0] congestionRatio 0
scalar FogNoLB.fog[29].server[0] totalJobs 517224
scalar FogNoLB.fog[29].server[0] droppedJobsQueue 26
scalar FogNoLB.fog[29].server[0] droppedJobsTimout 4455
scalar FogNoLB.fog[29].server[0] droppedJobsSLA 0
scalar FogNoLB.fog[29].server[0] droppedJobsTotal 4481
scalar FogNoLB.fog[30].dispatcher localJobs 517480
scalar FogNoLB.fog[30].dispatcher remoteJobs 0
scalar FogNoLB.fog[30].dispatcher probeQueries 0
scalar FogNoLB.fog[30].dispatcher probeAnswers 0
scalar FogNoLB.fog[30].dispatcher droppedJobsSLA 0
scalar FogNoLB.fog[30].dispatcher jobs_class_1 517480
scalar FogNoLB.fog[30].dispatcher localJobs_class_1 517480
scalar FogNoLB.fog[30].server[0] rho 0.79822278022766
scalar FogNoLB.fog[30].server[0] congestionRatio 0
scalar FogNoLB.fog[30].server[0] totalJobs 517480
scalar FogNoLB.fog[30].server[0] droppedJobsQueue 26
scalar FogNoLB.fog[30].server[0] droppedJobsTimout 4635
scalar FogNoLB.fog[30].server[0] droppedJobsSLA 0
scalar FogNoLB.fog[30].server[0] droppedJobsTotal 4661
scalar FogNoLB.fog[31].dispatcher localJobs 517686
scalar FogNoLB.fog[31].dispatcher remoteJobs 0
scalar FogNoLB.fog[31].dispatcher probeQueries 0
scalar FogNoLB.fog[31].dispatcher probeAnswers 0
scalar FogNoLB.fog[31].dispatcher droppedJobsSLA 0
scalar FogNoLB.fog[31].dispatcher jobs_class_1 517686
scalar FogNoLB.fog[31].dispatcher localJobs_class_1 517686
scalar FogNoLB.fog[31].server[0] rho 0.79874455928802
scalar FogNoLB.fog[31].server[0] congestionRatio 0
scalar FogNoLB.fog[31].server[0] totalJobs 517686
scalar FogNoLB.fog[31].server[0] droppedJobsQueue 11
scalar FogNoLB.fog[31].server[0] droppedJobsTimout 4281
scalar FogNoLB.fog[31].server[0] droppedJobsSLA 0
scalar FogNoLB.fog[31].server[0] droppedJobsTotal 4292
scalar FogNoLB.fog[32].dispatcher localJobs 517111
scalar FogNoLB.fog[32].dispatcher remoteJobs 0
scalar FogNoLB.fog[32].dispatcher probeQueries 0
scalar FogNoLB.fog[32].dispatcher probeAnswers 0
scalar FogNoLB.fog[32].dispatcher droppedJobsSLA 0
scalar FogNoLB.fog[32].dispatcher jobs_class_1 517111
scalar FogNoLB.fog[32].dispatcher localJobs_class_1 517111
scalar FogNoLB.fog[32].server[0] rho 0.79766750335693
scalar FogNoLB.fog[32].server[0] congestionRatio 0
scalar FogNoLB.fog[32].server[0] totalJobs 517111
scalar FogNoLB.fog[32].server[0] droppedJobsQueue 29
scalar FogNoLB.fog[32].server[0] droppedJobsTimout 4545
scalar FogNoLB.fog[32].server[0] droppedJobsSLA 0
scalar FogNoLB.fog[32].server[0] droppedJobsTotal 4574
scalar FogNoLB.fog[33].dispatcher localJobs 517343
scalar FogNoLB.fog[33].dispatcher remoteJobs 0
scalar FogNoLB.fog[33].dispatcher probeQueries 0
scalar FogNoLB.fog[33].dispatcher probeAnswers 0
scalar FogNoLB.fog[33].dispatcher droppedJobsSLA 0
scalar FogNoLB.fog[33].dispatcher jobs_class_1 517343
scalar FogNoLB.fog[33].dispatcher localJobs_class_1 517343
scalar FogNoLB.fog[33].server[0] rho 0.79798913002014
scalar FogNoLB.fog[33].server[0] congestionRatio 0
scalar FogNoLB.fog[33].server[0] totalJobs 517343
scalar FogNoLB.fog[33].server[0] droppedJobsQueue 31
scalar FogNoLB.fog[33].server[0] droppedJobsTimout 4792
scalar FogNoLB.fog[33].server[0] droppedJobsSLA 0
scalar FogNoLB.fog[33].server[0] droppedJobsTotal 4823
scalar FogNoLB.fog[34].dispatcher localJobs 516678
scalar FogNoLB.fog[34].dispatcher remoteJobs 0
scalar FogNoLB.fog[34].dispatcher probeQueries 0
scalar FogNoLB.fog[34].dispatcher probeAnswers 0
scalar FogNoLB.fog[34].dispatcher droppedJobsSLA 0
scalar FogNoLB.fog[34].dispatcher jobs_class_1 516678
scalar FogNoLB.fog[34].dispatcher localJobs_class_1 516678
scalar FogNoLB.fog[34].server[0] rho 0.79715269804001
scalar FogNoLB.fog[34].server[0] congestionRatio 0
scalar FogNoLB.fog[34].server[0] totalJobs 516678
scalar FogNoLB.fog[34].server[0] droppedJobsQueue 20
scalar FogNoLB.fog[34].server[0] droppedJobsTimout 4277
scalar FogNoLB.fog[34].server[0] droppedJobsSLA 0
scalar FogNoLB.fog[34].server[0] droppedJobsTotal 4297
scalar FogNoLB.fog[35].dispatcher localJobs 518289
scalar FogNoLB.fog[35].dispatcher remoteJobs 0
scalar FogNoLB.fog[35].dispatcher probeQueries 0
scalar FogNoLB.fog[35].dispatcher probeAnswers 0
scalar FogNoLB.fog[35].dispatcher droppedJobsSLA 0
scalar FogNoLB.fog[35].dispatcher jobs_class_1 518289
scalar FogNoLB.fog[35].dispatcher localJobs_class_1 518289
scalar FogNoLB.fog[35].server[0] rho 0.79933345317841
scalar FogNoLB.fog[35].server[0] congestionRatio 0
scalar FogNoLB.fog[35].server[0] totalJobs 518289
scalar FogNoLB.fog[35].server[0] droppedJobsQueue 14
scalar FogNoLB.fog[35].server[0] droppedJobsTimout 4859
scalar FogNoLB.fog[35].server[0] droppedJobsSLA 0
scalar FogNoLB.fog[35].server[0] droppedJobsTotal 4873
scalar FogNoLB.fog[36].dispatcher localJobs 517972
scalar FogNoLB.fog[36].dispatcher remoteJobs 0
scalar FogNoLB.fog[36].dispatcher probeQueries 0
scalar FogNoLB.fog[36].dispatcher probeAnswers 0
scalar FogNoLB.fog[36].dispatcher droppedJobsSLA 0
scalar FogNoLB.fog[36].dispatcher jobs_class_1 517972
scalar FogNoLB.fog[36].dispatcher localJobs_class_1 517972
scalar FogNoLB.fog[36].server[0] rho 0.79904270172119
scalar FogNoLB.fog[36].server[0] congestionRatio 0
scalar FogNoLB.fog[36].server[0] totalJobs 517972
scalar FogNoLB.fog[36].server[0] droppedJobsQueue 28
scalar FogNoLB.fog[36].server[0] droppedJobsTimout 4625
scalar FogNoLB.fog[36].server[0] droppedJobsSLA 0
scalar FogNoLB.fog[36].server[0] droppedJobsTotal 4653
scalar FogNoLB.fog[37].dispatcher localJobs 517432
scalar FogNoLB.fog[37].dispatcher remoteJobs 0
scalar FogNoLB.fog[37].dispatcher probeQueries 0
scalar FogNoLB.fog[37].dispatcher probeAnswers 0
scalar FogNoLB.fog[37].dispatcher droppedJobsSLA 0
scalar FogNoLB.fog[37].dispatcher jobs_class_1 517432
scalar FogNoLB.fog[37].dispatcher localJobs_class_1 517432
scalar FogNoLB.fog[37].server[0] rho 0.7981248497963
scalar FogNoLB.fog[37].server[0] congestionRatio 0
scalar FogNoLB.fog[37].server[0] totalJobs 517432
scalar FogNoLB.fog[37].server[0] droppedJobsQueue 27
scalar FogNoLB.fog[37].server[0] droppedJobsTimout 4516
scalar FogNoLB.fog[37].server[0] droppedJobsSLA 0
scalar FogNoLB.fog[37].server[0] droppedJobsTotal 4543
scalar FogNoLB.fog[38].dispatcher localJobs 516342
scalar FogNoLB.fog[38].dispatcher remoteJobs 0
scalar FogNoLB.fog[38].dispatcher probeQueries 0
scalar FogNoLB.fog[38].dispatcher probeAnswers 0
scalar FogNoLB.fog[38].dispatcher droppedJobsSLA 0
scalar FogNoLB.fog[38].dispatcher jobs_class_1 516342
scalar FogNoLB.fog[38].dispatcher localJobs_class_1 516342
scalar FogNoLB.fog[38].server[0] rho 0.79648196697235
scalar FogNoLB.fog[38].server[0] congestionRatio 0
scalar FogNoLB.fog[38].server[0] totalJobs 516342
scalar FogNoLB.fog[38].server[0] droppedJobsQueue 23
scalar FogNoLB.fog[38].server[0] droppedJobsTimout 4520
scalar FogNoLB.fog[38].server[0] droppedJobsSLA 0
scalar FogNoLB.fog[38].server[0] droppedJobsTotal 4543
scalar FogNoLB.fog[39].dispatcher localJobs 518082
scalar FogNoLB.fog[39].dispatcher remoteJobs 0
scalar FogNoLB.fog[39].dispatcher probeQueries 0
scalar FogNoLB.fog[39].dispatcher probeAnswers 0
scalar FogNoLB.fog[39].dispatcher droppedJobsSLA 0
scalar FogNoLB.fog[39].dispatcher jobs_class_1 518082
scalar FogNoLB.fog[39].dispatcher localJobs_class_1 518082
scalar FogNoLB.fog[39].server[0] rho 0.79900825023651
scalar FogNoLB.fog[39].server[0] congestionRatio 0
scalar FogNoLB.fog[39].server[0] totalJobs 518082
scalar FogNoLB.fog[39].server[0] droppedJobsQueue 35
scalar FogNoLB.fog[39].server[0] droppedJobsTimout 4827
scalar FogNoLB.fog[39].server[0] droppedJobsSLA 0
scalar FogNoLB.fog[39].server[0] droppedJobsTotal 4862
scalar FogNoLB.fog[40].dispatcher localJobs 516276
scalar FogNoLB.fog[40].dispatcher remoteJobs 0
scalar FogNoLB.fog[40].dispatcher probeQueries 0
scalar FogNoLB.fog[40].dispatcher probeAnswers 0
scalar FogNoLB.fog[40].dispatcher droppedJobsSLA 0
scalar FogNoLB.fog[40].dispatcher jobs_class_1 516276
scalar FogNoLB.fog[40].dispatcher localJobs_class_1 516276
scalar FogNoLB.fog[40].server[0] rho 0.7963120341301
scalar FogNoLB.fog[40].server[0] congestionRatio 0
scalar FogNoLB.fog[40].server[0] totalJobs 516276
scalar FogNoLB.fog[40].server[0] droppedJobsQueue 37
scalar FogNoLB.fog[40].server[0] droppedJobsTimout 4550
scalar FogNoLB.fog[40].server[0] droppedJobsSLA 0
scalar FogNoLB.fog[40].server[0] droppedJobsTotal 4587
scalar FogNoLB.fog[41].dispatcher localJobs 517891
scalar FogNoLB.fog[41].dispatcher remoteJobs 0
scalar FogNoLB.fog[41].dispatcher probeQueries 0
scalar FogNoLB.fog[41].dispatcher probeAnswers 0
scalar FogNoLB.fog[41].dispatcher droppedJobsSLA 0
scalar FogNoLB.fog[41].dispatcher jobs_class_1 517891
scalar FogNoLB.fog[41].dispatcher localJobs_class_1 517891
scalar FogNoLB.fog[41].server[0] rho 0.7988058924675
scalar FogNoLB.fog[41].server[0] congestionRatio 0
scalar FogNoLB.fog[41].server[0] totalJobs 517891
scalar FogNoLB.fog[41].server[0] droppedJobsQueue 40
scalar FogNoLB.fog[41].server[0] droppedJobsTimout 4624
scalar FogNoLB.fog[41].server[0] droppedJobsSLA 0
scalar FogNoLB.fog[41].server[0] droppedJobsTotal 4664
scalar FogNoLB.fog[42].dispatcher localJobs 517113
scalar FogNoLB.fog[42].dispatcher remoteJobs 0
scalar FogNoLB.fog[42].dispatcher probeQueries 0
scalar FogNoLB.fog[42].dispatcher probeAnswers 0
scalar FogNoLB.fog[42].dispatcher droppedJobsSLA 0
scalar FogNoLB.fog[42].dispatcher jobs_class_1 517113
scalar FogNoLB.fog[42].dispatcher localJobs_class_1 517113
scalar FogNoLB.fog[42].server[0] rho 0.79780918359756
scalar FogNoLB.fog[42].server[0] congestionRatio 0
scalar FogNoLB.fog[42].server[0] totalJobs 517113
scalar FogNoLB.fog[42].server[0] droppedJobsQueue 19
scalar FogNoLB.fog[42].server[0] droppedJobsTimout 4342
scalar FogNoLB.fog[42].server[0] droppedJobsSLA 0
scalar FogNoLB.fog[42].server[0] droppedJobsTotal 4361
scalar FogNoLB.fog[43].dispatcher localJobs 517380
scalar FogNoLB.fog[43].dispatcher remoteJobs 0
scalar FogNoLB.fog[43].dispatcher probeQueries 0
scalar FogNoLB.fog[43].dispatcher probeAnswers 0
scalar FogNoLB.fog[43].dispatcher droppedJobsSLA 0
scalar FogNoLB.fog[43].dispatcher jobs_class_1 517380
scalar FogNoLB.fog[43].dispatcher localJobs_class_1 517380
scalar FogNoLB.fog[43].server[0] rho 0.7981281876564
scalar FogNoLB.fog[43].server[0] congestionRatio 0
scalar FogNoLB.fog[43].server[0] totalJobs 517380
scalar FogNoLB.fog[43].server[0] droppedJobsQueue 31
scalar FogNoLB.fog[43].server[0] droppedJobsTimout 4466
scalar FogNoLB.fog[43].server[0] droppedJobsSLA 0
scalar FogNoLB.fog[43].server[0] droppedJobsTotal 4497
scalar FogNoLB.fog[44].dispatcher localJobs 516022
scalar FogNoLB.fog[44].dispatcher remoteJobs 0
scalar FogNoLB.fog[44].dispatcher probeQueries 0
scalar FogNoLB.fog[44].dispatcher probeAnswers 0
scalar FogNoLB.fog[44].dispatcher droppedJobsSLA 0
scalar FogNoLB.fog[44].dispatcher jobs_class_1 516022
scalar FogNoLB.fog[44].dispatcher localJobs_class_1 516022
scalar FogNoLB.fog[44].server[0] rho 0.79608166217804
scalar FogNoLB.fog[44].server[0] congestionRatio 0
scalar FogNoLB.fog[44].server[0] totalJobs 516022
scalar FogNoLB.fog[44].server[0] droppedJobsQueue 20
scalar FogNoLB.fog[44].server[0] droppedJobsTimout 4277
scalar FogNoLB.fog[44].server[0] droppedJobsSLA 0
scalar FogNoLB.fog[44].server[0] droppedJobsTotal 4297
scalar FogNoLB.fog[45].dispatcher localJobs 517979
scalar FogNoLB.fog[45].dispatcher remoteJobs 0
scalar FogNoLB.fog[45].dispatcher probeQueries 0
scalar FogNoLB.fog[45].dispatcher probeAnswers 0
scalar FogNoLB.fog[45].dispatcher droppedJobsSLA 0
scalar FogNoLB.fog[45].dispatcher jobs_class_1 517979
scalar FogNoLB.fog[45].dispatcher localJobs_class_1 517979
scalar FogNoLB.fog[45].server[0] rho 0.79907929897308
scalar FogNoLB.fog[45].server[0] congestionRatio 0
scalar FogNoLB.fog[45].server[0] totalJobs 517979
scalar FogNoLB.fog[45].server[0] droppedJobsQueue 15
scalar FogNoLB.fog[45].server[0] droppedJobsTimout 4367
scalar FogNoLB.fog[45].server[0] droppedJobsSLA 0
scalar FogNoLB.fog[45].server[0] droppedJobsTotal 4382
scalar FogNoLB.fog[46].dispatcher localJobs 516594
scalar FogNoLB.fog[46].dispatcher remoteJobs 0
scalar FogNoLB.fog[46].dispatcher probeQueries 0
scalar FogNoLB.fog[46].dispatcher probeAnswers 0
scalar FogNoLB.fog[46].dispatcher droppedJobsSLA 0
scalar FogNoLB.fog[46].dispatcher jobs_class_1 516594
scalar FogNoLB.fog[46].dispatcher localJobs_class_1 516594
scalar FogNoLB.fog[46].server[0] rho 0.79699629545212
scalar FogNoLB.fog[46].server[0] congestionRatio 0
scalar FogNoLB.fog[46].server[0] totalJobs 516594
scalar FogNoLB.fog[46].server[0] droppedJobsQueue 19
scalar FogNoLB.fog[46].server[0] droppedJobsTimout 4321
scalar FogNoLB.fog[46].server[0] droppedJobsSLA 0
scalar FogNoLB.fog[46].server[0] droppedJobsTotal 4340
scalar FogNoLB.fog[47].dispatcher localJobs 515376
scalar FogNoLB.fog[47].dispatcher remoteJobs 0
scalar FogNoLB.fog[47].dispatcher probeQueries 0
scalar FogNoLB.fog[47].dispatcher probeAnswers 0
scalar FogNoLB.fog[47].dispatcher droppedJobsSLA 0
scalar FogNoLB.fog[47].dispatcher jobs_class_1 515376
scalar FogNoLB.fog[47].dispatcher localJobs_class_1 515376
scalar FogNoLB.fog[47].server[0] rho 0.79525202512741
scalar FogNoLB.fog[47].server[0] congestionRatio 0
scalar FogNoLB.fog[47].server[0] totalJobs 515376
scalar FogNoLB.fog[47].server[0] droppedJobsQueue 11
scalar FogNoLB.fog[47].server[0] droppedJobsTimout 3926
scalar FogNoLB.fog[47].server[0] droppedJobsSLA 0
scalar FogNoLB.fog[47].server[0] droppedJobsTotal 3937
scalar FogNoLB.fog[48].dispatcher localJobs 517973
scalar FogNoLB.fog[48].dispatcher remoteJobs 0
scalar FogNoLB.fog[48].dispatcher probeQueries 0
scalar FogNoLB.fog[48].dispatcher probeAnswers 0
scalar FogNoLB.fog[48].dispatcher droppedJobsSLA 0
scalar FogNoLB.fog[48].dispatcher jobs_class_1 517973
scalar FogNoLB.fog[48].dispatcher localJobs_class_1 517973
scalar FogNoLB.fog[48].server[0] rho 0.79893755912781
scalar FogNoLB.fog[48].server[0] congestionRatio 0
scalar FogNoLB.fog[48].server[0] totalJobs 517973
scalar FogNoLB.fog[48].server[0] droppedJobsQueue 11
scalar FogNoLB.fog[48].server[0] droppedJobsTimout 4525
scalar FogNoLB.fog[48].server[0] droppedJobsSLA 0
scalar FogNoLB.fog[48].server[0] droppedJobsTotal 4536
scalar FogNoLB.fog[49].dispatcher localJobs 517115
scalar FogNoLB.fog[49].dispatcher remoteJobs 0
scalar FogNoLB.fog[49].dispatcher probeQueries 0
scalar FogNoLB.fog[49].dispatcher probeAnswers 0
scalar FogNoLB.fog[49].dispatcher droppedJobsSLA 0
scalar FogNoLB.fog[49].dispatcher jobs_class_1 517115
scalar FogNoLB.fog[49].dispatcher localJobs_class_1 517115
scalar FogNoLB.fog[49].server[0] rho 0.79761457443237
scalar FogNoLB.fog[49].server[0] congestionRatio 0
scalar FogNoLB.fog[49].server[0] totalJobs 517115
scalar FogNoLB.fog[49].server[0] droppedJobsQueue 20
scalar FogNoLB.fog[49].server[0] droppedJobsTimout 4715
scalar FogNoLB.fog[49].server[0] droppedJobsSLA 0
scalar FogNoLB.fog[49].server[0] droppedJobsTotal 4735
scalar FogNoLB.fog[50].dispatcher localJobs 517649
scalar FogNoLB.fog[50].dispatcher remoteJobs 0
scalar FogNoLB.fog[50].dispatcher probeQueries 0
scalar FogNoLB.fog[50].dispatcher probeAnswers 0
scalar FogNoLB.fog[50].dispatcher droppedJobsSLA 0
scalar FogNoLB.fog[50].dispatcher jobs_class_1 517649
scalar FogNoLB.fog[50].dispatcher localJobs_class_1 517649
scalar FogNoLB.fog[50].server[0] rho 0.7986102104187
scalar FogNoLB.fog[50].server[0] congestionRatio 0
scalar FogNoLB.fog[50].server[0] totalJobs 517649
scalar FogNoLB.fog[50].server[0] droppedJobsQueue 17
scalar FogNoLB.fog[50].server[0] droppedJobsTimout 4425
scalar FogNoLB.fog[50].server[0] droppedJobsSLA 0
scalar FogNoLB.fog[50].server[0] droppedJobsTotal 4442
scalar FogNoLB.fog[51].dispatcher localJobs 517979
scalar FogNoLB.fog[51].dispatcher remoteJobs 0
scalar FogNoLB.fog[51].dispatcher probeQueries 0
scalar FogNoLB.fog[51].dispatcher probeAnswers 0
scalar FogNoLB.fog[51].dispatcher droppedJobsSLA 0
scalar FogNoLB.fog[51].dispatcher jobs_class_1 517979
scalar FogNoLB.fog[51].dispatcher localJobs_class_1 517979
scalar FogNoLB.fog[51].server[0] rho 0.798923432827
scalar FogNoLB.fog[51].server[0] congestionRatio 0
scalar FogNoLB.fog[51].server[0] totalJobs 517979
scalar FogNoLB.fog[51].server[0] droppedJobsQueue 20
scalar FogNoLB.fog[51].server[0] droppedJobsTimout 4681
scalar FogNoLB.fog[51].server[0] droppedJobsSLA 0
scalar FogNoLB.fog[51].server[0] droppedJobsTotal 4701
scalar FogNoLB.fog[52].dispatcher localJobs 517043
scalar FogNoLB.fog[52].dispatcher remoteJobs 0
scalar FogNoLB.fog[52].dispatcher probeQueries 0
scalar FogNoLB.fog[52].dispatcher probeAnswers 0
scalar FogNoLB.fog[52].dispatcher droppedJobsSLA 0
scalar FogNoLB.fog[52].dispatcher jobs_class_1 517043
scalar FogNoLB.fog[52].dispatcher localJobs_class_1 517043
scalar FogNoLB.fog[52].server[0] rho 0.79761874675751
scalar FogNoLB.fog[52].server[0] congestionRatio 0
scalar FogNoLB.fog[52].server[0] totalJobs 517043
scalar FogNoLB.fog[52].server[0] droppedJobsQueue 22
scalar FogNoLB.fog[52].server[0] droppedJobsTimout 4486
scalar FogNoLB.fog[52].server[0] droppedJobsSLA 0
scalar FogNoLB.fog[52].server[0] droppedJobsTotal 4508
scalar FogNoLB.fog[53].dispatcher localJobs 517306
scalar FogNoLB.fog[53].dispatcher remoteJobs 0
scalar FogNoLB.fog[53].dispatcher probeQueries 0
scalar FogNoLB.fog[53].dispatcher probeAnswers 0
scalar FogNoLB.fog[53].dispatcher droppedJobsSLA 0
scalar FogNoLB.fog[53].dispatcher jobs_class_1 517306
scalar FogNoLB.fog[53].dispatcher localJobs_class_1 517306
scalar FogNoLB.fog[53].server[0] rho 0.79822307825089
scalar FogNoLB.fog[53].server[0] congestionRatio 0
scalar FogNoLB.fog[53].server[0] totalJobs 517306
scalar FogNoLB.fog[53].server[0] droppedJobsQueue 22
scalar FogNoLB.fog[53].server[0] droppedJobsTimout 3990
scalar FogNoLB.fog[53].server[0] droppedJobsSLA 0
scalar FogNoLB.fog[53].server[0] droppedJobsTotal 4012
scalar FogNoLB.fog[54].dispatcher localJobs 517163
scalar FogNoLB.fog[54].dispatcher remoteJobs 0
scalar FogNoLB.fog[54].dispatcher probeQueries 0
scalar FogNoLB.fog[54].dispatcher probeAnswers 0
scalar FogNoLB.fog[54].dispatcher droppedJobsSLA 0
scalar FogNoLB.fog[54].dispatcher jobs_class_1 517163
scalar FogNoLB.fog[54].dispatcher localJobs_class_1 517163
scalar FogNoLB.fog[54].server[0] rho 0.7979274392128
scalar FogNoLB.fog[54].server[0] congestionRatio 0
scalar FogNoLB.fog[54].server[0] totalJobs 517163
scalar FogNoLB.fog[54].server[0] droppedJobsQueue 7
scalar FogNoLB.fog[54].server[0] droppedJobsTimout 4293
scalar FogNoLB.fog[54].server[0] droppedJobsSLA 0
scalar FogNoLB.fog[54].server[0] droppedJobsTotal 4300
scalar FogNoLB.fog[55].dispatcher localJobs 516747
scalar FogNoLB.fog[55].dispatcher remoteJobs 0
scalar FogNoLB.fog[55].dispatcher probeQueries 0
scalar FogNoLB.fog[55].dispatcher probeAnswers 0
scalar FogNoLB.fog[55].dispatcher droppedJobsSLA 0
scalar FogNoLB.fog[55].dispatcher jobs_class_1 516747
scalar FogNoLB.fog[55].dispatcher localJobs_class_1 516747
scalar FogNoLB.fog[55].server[0] rho 0.79723048210144
scalar FogNoLB.fog[55].server[0] congestionRatio 0
scalar FogNoLB.fog[55].server[0] totalJobs 516747
scalar FogNoLB.fog[55].server[0] droppedJobsQueue 11
scalar FogNoLB.fog[55].server[0] droppedJobsTimout 4385
scalar FogNoLB.fog[55].server[0] droppedJobsSLA 0
scalar FogNoLB.fog[55].server[0] droppedJobsTotal 4396
scalar FogNoLB.fog[56].dispatcher localJobs 516718
scalar FogNoLB.fog[56].dispatcher remoteJobs 0
scalar FogNoLB.fog[56].dispatcher probeQueries 0
scalar FogNoLB.fog[56].dispatcher probeAnswers 0
scalar FogNoLB.fog[56].dispatcher droppedJobsSLA 0
scalar FogNoLB.fog[56].dispatcher jobs_class_1 516718
scalar FogNoLB.fog[56].dispatcher localJobs_class_1 516718
scalar FogNoLB.fog[56].server[0] rho 0.79695975780487
scalar FogNoLB.fog[56].server[0] congestionRatio 0
scalar FogNoLB.fog[56].server[0] totalJobs 516718
scalar FogNoLB.fog[56].server[0] droppedJobsQueue 18
scalar FogNoLB.fog[56].server[0] droppedJobsTimout 4853
scalar FogNoLB.fog[56].server[0] droppedJobsSLA 0
scalar FogNoLB.fog[56].server[0] droppedJobsTotal 4871
scalar FogNoLB.fog[57].dispatcher localJobs 518055
scalar FogNoLB.fog[57].dispatcher remoteJobs 0
scalar FogNoLB.fog[57].dispatcher probeQueries 0
scalar FogNoLB.fog[57].dispatcher probeAnswers 0
scalar FogNoLB.fog[57].dispatcher droppedJobsSLA 0
scalar FogNoLB.fog[57].dispatcher jobs_class_1 518055
scalar FogNoLB.fog[57].dispatcher localJobs_class_1 518055
scalar FogNoLB.fog[57].server[0] rho 0.79934763908386
scalar FogNoLB.fog[57].server[0] congestionRatio 0
scalar FogNoLB.fog[57].server[0] totalJobs 518055
scalar FogNoLB.fog[57].server[0] droppedJobsQueue 18
scalar FogNoLB.fog[57].server[0] droppedJobsTimout 4394
scalar FogNoLB.fog[57].server[0] droppedJobsSLA 0
scalar FogNoLB.fog[57].server[0] droppedJobsTotal 4412
scalar FogNoLB.fog[58].dispatcher localJobs 518092
scalar FogNoLB.fog[58].dispatcher remoteJobs 0
scalar FogNoLB.fog[58].dispatcher probeQueries 0
scalar FogNoLB.fog[58].dispatcher probeAnswers 0
scalar FogNoLB.fog[58].dispatcher droppedJobsSLA 0
scalar FogNoLB.fog[58].dispatcher jobs_class_1 518092
scalar FogNoLB.fog[58].dispatcher localJobs_class_1 518092
scalar FogNoLB.fog[58].server[0] rho 0.79937636852264
scalar FogNoLB.fog[58].server[0] congestionRatio 0
scalar FogNoLB.fog[58].server[0] totalJobs 518092
scalar FogNoLB.fog[58].server[0] droppedJobsQueue 21
scalar FogNoLB.fog[58].server[0] droppedJobsTimout 4293
scalar FogNoLB.fog[58].server[0] droppedJobsSLA 0
scalar FogNoLB.fog[58].server[0] droppedJobsTotal 4314
scalar FogNoLB.fog[59].dispatcher localJobs 517137
scalar FogNoLB.fog[59].dispatcher remoteJobs 0
scalar FogNoLB.fog[59].dispatcher probeQueries 0
scalar FogNoLB.fog[59].dispatcher probeAnswers 0
scalar FogNoLB.fog[59].dispatcher droppedJobsSLA 0
scalar FogNoLB.fog[59].dispatcher jobs_class_1 517137
scalar FogNoLB.fog[59].dispatcher localJobs_class_1 517137
scalar FogNoLB.fog[59].server[0] rho 0.79777336120605
scalar FogNoLB.fog[59].server[0] congestionRatio 0
scalar FogNoLB.fog[59].server[0] totalJobs 517137
scalar FogNoLB.fog[59].server[0] droppedJobsQueue 22
scalar FogNoLB.fog[59].server[0] droppedJobsTimout 4511
scalar FogNoLB.fog[59].server[0] droppedJobsSLA 0
scalar FogNoLB.fog[59].server[0] droppedJobsTotal 4533
scalar FogNoLB.fog[60].dispatcher localJobs 518135
scalar FogNoLB.fog[60].dispatcher remoteJobs 0
scalar FogNoLB.fog[60].dispatcher probeQueries 0
scalar FogNoLB.fog[60].dispatcher probeAnswers 0
scalar FogNoLB.fog[60].dispatcher droppedJobsSLA 0
scalar FogNoLB.fog[60].dispatcher jobs_class_1 518135
scalar FogNoLB.fog[60].dispatcher localJobs_class_1 518135
scalar FogNoLB.fog[60].server[0] rho 0.79926991462708
scalar FogNoLB.fog[60].server[0] congestionRatio 0
scalar FogNoLB.fog[60].server[0] totalJobs 518135
scalar FogNoLB.fog[60].server[0] droppedJobsQueue 12
scalar FogNoLB.fog[60].server[0] droppedJobsTimout 4484
scalar FogNoLB.fog[60].server[0] droppedJobsSLA 0
scalar FogNoLB.fog[60].server[0] droppedJobsTotal 4496
scalar FogNoLB.fog[61].dispatcher localJobs 518219
scalar FogNoLB.fog[61].dispatcher remoteJobs 0
scalar FogNoLB.fog[61].dispatcher probeQueries 0
scalar FogNoLB.fog[61].dispatcher probeAnswers 0
scalar FogNoLB.fog[61].dispatcher droppedJobsSLA 0
scalar FogNoLB.fog[61].dispatcher jobs_class_1 518219
scalar FogNoLB.fog[61].dispatcher localJobs_class_1 518219
scalar FogNoLB.fog[61].server[0] rho 0.79943305253983
scalar FogNoLB.fog[61].server[0] congestionRatio 0
scalar FogNoLB.fog[61].server[0] totalJobs 518219
scalar FogNoLB.fog[61].server[0] droppedJobsQueue 27
scalar FogNoLB.fog[61].server[0] droppedJobsTimout 4428
scalar FogNoLB.fog[61].server[0] droppedJobsSLA 0
scalar FogNoLB.fog[61].server[0] droppedJobsTotal 4455
scalar FogNoLB.fog[62].dispatcher localJobs 518518
scalar FogNoLB.fog[62].dispatcher remoteJobs 0
scalar FogNoLB.fog[62].dispatcher probeQueries 0
scalar FogNoLB.fog[62].dispatcher probeAnswers 0
scalar FogNoLB.fog[62].dispatcher droppedJobsSLA 0
scalar FogNoLB.fog[62].dispatcher jobs_class_1 518518
scalar FogNoLB.fog[62].dispatcher localJobs_class_1 518518
scalar FogNoLB.fog[62].server[0] rho 0.79967683553696
scalar FogNoLB.fog[62].server[0] congestionRatio 0
scalar FogNoLB.fog[62].server[0] totalJobs 518518
scalar FogNoLB.fog[62].server[0] droppedJobsQueue 20
scalar FogNoLB.fog[62].server[0] droppedJobsTimout 4973
scalar FogNoLB.fog[62].server[0] droppedJobsSLA 0
scalar FogNoLB.fog[62].server[0] droppedJobsTotal 4993
scalar FogNoLB.fog[63].dispatcher localJobs 517256
scalar FogNoLB.fog[63].dispatcher remoteJobs 0
scalar FogNoLB.fog[63].dispatcher probeQueries 0
scalar FogNoLB.fog[63].dispatcher probeAnswers 0
scalar FogNoLB.fog[63].dispatcher droppedJobsSLA 0
scalar FogNoLB.fog[63].dispatcher jobs_class_1 517256
scalar FogNoLB.fog[63].dispatcher localJobs_class_1 517256
scalar FogNoLB.fog[63].server[0] rho 0.79784643650055
scalar FogNoLB.fog[63].server[0] congestionRatio 0
scalar FogNoLB.fog[63].server[0] totalJobs 517256
scalar FogNoLB.fog[63].server[0] droppedJobsQueue 17
scalar FogNoLB.fog[63].server[0] droppedJobsTimout 4692
scalar FogNoLB.fog[63].server[0] droppedJobsSLA 0
scalar FogNoLB.fog[63].server[0] droppedJobsTotal 4709
scalar FogNoLB.fog[64].dispatcher localJobs 517283
scalar FogNoLB.fog[64].dispatcher remoteJobs 0
scalar FogNoLB.fog[64].dispatcher probeQueries 0
scalar FogNoLB.fog[64].dispatcher probeAnswers 0
scalar FogNoLB.fog[64].dispatcher droppedJobsSLA 0
scalar FogNoLB.fog[64].dispatcher jobs_class_1 517283
scalar FogNoLB.fog[64].dispatcher localJobs_class_1 517283
scalar FogNoLB.fog[64].server[0] rho 0.79781317710876
scalar FogNoLB.fog[64].server[0] congestionRatio 0
scalar FogNoLB.fog[64].server[0] totalJobs 517283
scalar FogNoLB.fog[64].server[0] droppedJobsQueue 29
scalar FogNoLB.fog[64].server[0] droppedJobsTimout 4903
scalar FogNoLB.fog[64].server[0] droppedJobsSLA 0
scalar FogNoLB.fog[64].server[0] droppedJobsTotal 4932
scalar FogNoLB.fog[65].dispatcher localJobs 516975
scalar FogNoLB.fog[65].dispatcher remoteJobs 0
scalar FogNoLB.fog[65].dispatcher probeQueries 0
scalar FogNoLB.fog[65].dispatcher probeAnswers 0
scalar FogNoLB.fog[65].dispatcher droppedJobsSLA 0
scalar FogNoLB.fog[65].dispatcher jobs_class_1 516975
scalar FogNoLB.fog[65].dispatcher localJobs_class_1 516975
scalar FogNoLB.fog[65].server[0] rho 0.79742032289505
scalar FogNoLB.fog[65].server[0] congestionRatio 0
scalar FogNoLB.fog[65].server[0] totalJobs 516975
scalar FogNoLB.fog[65].server[0] droppedJobsQueue 20
scalar FogNoLB.fog[65].server[0] droppedJobsTimout 4771
scalar FogNoLB.fog[65].server[0] droppedJobsSLA 0
scalar FogNoLB.fog[65].server[0] droppedJobsTotal 4791
scalar FogNoLB.fog[66].dispatcher localJobs 519094
scalar FogNoLB.fog[66].dispatcher remoteJobs 0
scalar FogNoLB.fog[66].dispatcher probeQueries 0
scalar FogNoLB.fog[66].dispatcher probeAnswers 0
scalar FogNoLB.fog[66].dispatcher droppedJobsSLA 0
scalar FogNoLB.fog[66].dispatcher jobs_class_1 519094
scalar FogNoLB.fog[66].dispatcher localJobs_class_1 519094
scalar FogNoLB.fog[66].server[0] rho 0.80054497718811
scalar FogNoLB.fog[66].server[0] congestionRatio 0
scalar FogNoLB.fog[66].server[0] totalJobs 519094
scalar FogNoLB.fog[66].server[0] droppedJobsQueue 25
scalar FogNoLB.fog[66].server[0] droppedJobsTimout 5134
scalar FogNoLB.fog[66].server[0] droppedJobsSLA 0
scalar FogNoLB.fog[66].server[0] droppedJobsTotal 5159
scalar FogNoLB.fog[67].dispatcher localJobs 517851
scalar FogNoLB.fog[67].dispatcher remoteJobs 0
scalar FogNoLB.fog[67].dispatcher probeQueries 0
scalar FogNoLB.fog[67].dispatcher probeAnswers 0
scalar FogNoLB.fog[67].dispatcher droppedJobsSLA 0
scalar FogNoLB.fog[67].dispatcher jobs_class_1 517851
scalar FogNoLB.fog[67].dispatcher localJobs_class_1 517851
scalar FogNoLB.fog[67].server[0] rho 0.79900753498077
scalar FogNoLB.fog[67].server[0] congestionRatio 0
scalar FogNoLB.fog[67].server[0] totalJobs 517851
scalar FogNoLB.fog[67].server[0] droppedJobsQueue 6
scalar FogNoLB.fog[67].server[0] droppedJobsTimout 4297
scalar FogNoLB.fog[67].server[0] droppedJobsSLA 0
scalar FogNoLB.fog[67].server[0] droppedJobsTotal 4303
scalar FogNoLB.fog[68].dispatcher localJobs 518366
scalar FogNoLB.fog[68].dispatcher remoteJobs 0
scalar FogNoLB.fog[68].dispatcher probeQueries 0
scalar FogNoLB.fog[68].dispatcher probeAnswers 0
scalar FogNoLB.fog[68].dispatcher droppedJobsSLA 0
scalar FogNoLB.fog[68].dispatcher jobs_class_1 518366
scalar FogNoLB.fog[68].dispatcher localJobs_class_1 518366
scalar FogNoLB.fog[68].server[0] rho 0.7996569275856
scalar FogNoLB.fog[68].server[0] congestionRatio 0
scalar FogNoLB.fog[68].server[0] totalJobs 518366
scalar FogNoLB.fog[68].server[0] droppedJobsQueue 16
scalar FogNoLB.fog[68].server[0] droppedJobsTimout 4535
scalar FogNoLB.fog[68].server[0] droppedJobsSLA 0
scalar FogNoLB.fog[68].server[0] droppedJobsTotal 4551
scalar FogNoLB.fog[69].dispatcher localJobs 517705
scalar FogNoLB.fog[69].dispatcher remoteJobs 0
scalar FogNoLB.fog[69].dispatcher probeQueries 0
scalar FogNoLB.fog[69].dispatcher probeAnswers 0
scalar FogNoLB.fog[69].dispatcher droppedJobsSLA 0
scalar FogNoLB.fog[69].dispatcher jobs_class_1 517705
scalar FogNoLB.fog[69].dispatcher localJobs_class_1 517705
scalar FogNoLB.fog[69].server[0] rho 0.79850816726685
scalar FogNoLB.fog[69].server[0] congestionRatio 0
scalar FogNoLB.fog[69].server[0] totalJobs 517705
scalar FogNoLB.fog[69].server[0] droppedJobsQueue 29
scalar FogNoLB.fog[69].server[0] droppedJobsTimout 4743
scalar FogNoLB.fog[69].server[0] droppedJobsSLA 0
scalar FogNoLB.fog[69].server[0] droppedJobsTotal 4772
scalar FogNoLB.fog[70].dispatcher localJobs 518492
scalar FogNoLB.fog[70].dispatcher remoteJobs 0
scalar FogNoLB.fog[70].dispatcher probeQueries 0
scalar FogNoLB.fog[70].dispatcher probeAnswers 0
scalar FogNoLB.fog[70].dispatcher droppedJobsSLA 0
scalar FogNoLB.fog[70].dispatcher jobs_class_1 518492
scalar FogNoLB.fog[70].dispatcher localJobs_class_1 518492
scalar FogNoLB.fog[70].server[0] rho 0.7999581694603
scalar FogNoLB.fog[70].server[0] congestionRatio 0
scalar FogNoLB.fog[70].server[0] totalJobs 518492
scalar FogNoLB.fog[70].server[0] droppedJobsQueue 14
scalar FogNoLB.fog[70].server[0] droppedJobsTimout 4411
scalar FogNoLB.fog[70].server[0] droppedJobsSLA 0
scalar FogNoLB.fog[70].server[0] droppedJobsTotal 4425
scalar FogNoLB.fog[71].dispatcher localJobs 517876
scalar FogNoLB.fog[71].dispatcher remoteJobs 0
scalar FogNoLB.fog[71].dispatcher probeQueries 0
scalar FogNoLB.fog[71].dispatcher probeAnswers 0
scalar FogNoLB.fog[71].dispatcher droppedJobsSLA 0
scalar FogNoLB.fog[71].dispatcher jobs_class_1 517876
scalar FogNoLB.fog[71].dispatcher localJobs_class_1 517876
scalar FogNoLB.fog[71].server[0] rho 0.79899728298187
scalar FogNoLB.fog[71].server[0] congestionRatio 0
scalar FogNoLB.fog[71].server[0] totalJobs 517876
scalar FogNoLB.fog[71].server[0] droppedJobsQueue 9
scalar FogNoLB.fog[71].server[0] droppedJobsTimout 4295
scalar FogNoLB.fog[71].server[0] droppedJobsSLA 0
scalar FogNoLB.fog[71].server[0] droppedJobsTotal 4304
scalar FogNoLB.fog[72].dispatcher localJobs 516471
scalar FogNoLB.fog[72].dispatcher remoteJobs 0
scalar FogNoLB.fog[72].dispatcher probeQueries 0
scalar FogNoLB.fog[72].dispatcher probeAnswers 0
scalar FogNoLB.fog[72].dispatcher droppedJobsSLA 0
scalar FogNoLB.fog[72].dispatcher jobs_class_1 516471
scalar FogNoLB.fog[72].dispatcher localJobs_class_1 516471
scalar FogNoLB.fog[72].server[0] rho 0.79677617549896
scalar FogNoLB.fog[72].server[0] congestionRatio 0
scalar FogNoLB.fog[72].server[0] totalJobs 516471
scalar FogNoLB.fog[72].server[0] droppedJobsQueue 31
scalar FogNoLB.fog[72].server[0] droppedJobsTimout 4380
scalar FogNoLB.fog[72].server[0] droppedJobsSLA 0
scalar FogNoLB.fog[72].server[0] droppedJobsTotal 4411
scalar FogNoLB.fog[73].dispatcher localJobs 517277
scalar FogNoLB.fog[73].dispatcher remoteJobs 0
scalar FogNoLB.fog[73].dispatcher probeQueries 0
scalar FogNoLB.fog[73].dispatcher probeAnswers 0
scalar FogNoLB.fog[73].dispatcher droppedJobsSLA 0
scalar FogNoLB.fog[73].dispatcher jobs_class_1 517277
scalar FogNoLB.fog[73].dispatcher localJobs_class_1 517277
scalar FogNoLB.fog[73].server[0] rho 0.79792636632919
scalar FogNoLB.fog[73].server[0] congestionRatio 0
scalar FogNoLB.fog[73].server[0] totalJobs 517277
scalar FogNoLB.fog[73].server[0] droppedJobsQueue 16
scalar FogNoLB.fog[73].server[0] droppedJobsTimout 4595
scalar FogNoLB.fog[73].server[0] droppedJobsSLA 0
scalar FogNoLB.fog[73].server[0] droppedJobsTotal 4611
scalar FogNoLB.fog[74].dispatcher localJobs 518190
scalar FogNoLB.fog[74].dispatcher remoteJobs 0
scalar FogNoLB.fog[74].dispatcher probeQueries 0
scalar FogNoLB.fog[74].dispatcher probeAnswers 0
scalar FogNoLB.fog[74].dispatcher droppedJobsSLA 0
scalar FogNoLB.fog[74].dispatcher jobs_class_1 518190
scalar FogNoLB.fog[74].dispatcher localJobs_class_1 518190
scalar FogNoLB.fog[74].server[0] rho 0.79921293258667
scalar FogNoLB.fog[74].server[0] congestionRatio 0
scalar FogNoLB.fog[74].server[0] totalJobs 518190
scalar FogNoLB.fog[74].server[0] droppedJobsQueue 24
scalar FogNoLB.fog[74].server[0] droppedJobsTimout 4920
scalar FogNoLB.fog[74].server[0] droppedJobsSLA 0
scalar FogNoLB.fog[74].server[0] droppedJobsTotal 4944
scalar FogNoLB.fog[75].dispatcher localJobs 517429
scalar FogNoLB.fog[75].dispatcher remoteJobs 0
scalar FogNoLB.fog[75].dispatcher probeQueries 0
scalar FogNoLB.fog[75].dispatcher probeAnswers 0
scalar FogNoLB.fog[75].dispatcher droppedJobsSLA 0
scalar FogNoLB.fog[75].dispatcher jobs_class_1 517429
scalar FogNoLB.fog[75].dispatcher localJobs_class_1 517429
scalar FogNoLB.fog[75].server[0] rho 0.79823994636536
scalar FogNoLB.fog[75].server[0] congestionRatio 0
scalar FogNoLB.fog[75].server[0] totalJobs 517429
scalar FogNoLB.fog[75].server[0] droppedJobsQueue 14
scalar FogNoLB.fog[75].server[0] droppedJobsTimout 4383
scalar FogNoLB.fog[75].server[0] droppedJobsSLA 0
scalar FogNoLB.fog[75].server[0] droppedJobsTotal 4397
scalar FogNoLB.fog[76].dispatcher localJobs 516915
scalar FogNoLB.fog[76].dispatcher remoteJobs 0
scalar FogNoLB.fog[76].dispatcher probeQueries 0
scalar FogNoLB.fog[76].dispatcher probeAnswers 0
scalar FogNoLB.fog[76].dispatcher droppedJobsSLA 0
scalar FogNoLB.fog[76].dispatcher jobs_class_1 516915
scalar FogNoLB.fog[76].dispatcher localJobs_class_1 516915
scalar FogNoLB.fog[76].server[0] rho 0.79752510786057
scalar FogNoLB.fog[76].server[0] congestionRatio 0
scalar FogNoLB.fog[76].server[0] totalJobs 516915
scalar FogNoLB.fog[76].server[0] droppedJobsQueue 20
scalar FogNoLB.fog[76].server[0] droppedJobsTimout 4302
scalar FogNoLB.fog[76].server[0] droppedJobsSLA 0
scalar FogNoLB.fog[76].server[0] droppedJobsTotal 4322
scalar FogNoLB.fog[77].dispatcher localJobs 517762
scalar FogNoLB.fog[77].dispatcher remoteJobs 0
scalar FogNoLB.fog[77].dispatcher probeQueries 0
scalar FogNoLB.fog[77].dispatcher probeAnswers 0
scalar FogNoLB.fog[77].dispatcher droppedJobsSLA 0
scalar FogNoLB.fog[77].dispatcher jobs_class_1 517762
scalar FogNoLB.fog[77].dispatcher localJobs_class_1 517762
scalar FogNoLB.fog[77].server[0] rho 0.79865646362305
scalar FogNoLB.fog[77].server[0] congestionRatio 0
scalar FogNoLB.fog[77].server[0] totalJobs 517762
scalar FogNoLB.fog[77].server[0] droppedJobsQueue 20
scalar FogNoLB.fog[77].server[0] droppedJobsTimout 4625
scalar FogNoLB.fog[77].server[0] droppedJobsSLA 0
scalar FogNoLB.fog[77].server[0] droppedJobsTotal 4645
scalar FogNoLB.fog[78].dispatcher localJobs 519075
scalar FogNoLB.fog[78].dispatcher remoteJobs 0
scalar FogNoLB.fog[78].dispatcher probeQueries 0
scalar FogNoLB.fog[78].dispatcher probeAnswers 0
scalar FogNoLB.fog[78].dispatcher droppedJobsSLA 0
scalar FogNoLB.fog[78].dispatcher jobs_class_1 519075
scalar FogNoLB.fog[78].dispatcher localJobs_class_1 519075
scalar FogNoLB.fog[78].server[0] rho 0.80078101158142
scalar FogNoLB.fog[78].server[0] congestionRatio 0
scalar FogNoLB.fog[78].server[0] totalJobs 519075
scalar FogNoLB.fog[78].server[0] droppedJobsQueue 31
scalar FogNoLB.fog[78].server[0] droppedJobsTimout 4486
scalar FogNoLB.fog[78].server[0] droppedJobsSLA 0
scalar FogNoLB.fog[78].server[0] droppedJobsTotal 4517
scalar FogNoLB.fog[79].dispatcher localJobs 518125
scalar FogNoLB.fog[79].dispatcher remoteJobs 0
scalar FogNoLB.fog[79].dispatcher probeQueries 0
scalar FogNoLB.fog[79].dispatcher probeAnswers 0
scalar FogNoLB.fog[79].dispatcher droppedJobsSLA 0
scalar FogNoLB.fog[79].dispatcher jobs_class_1 518125
scalar FogNoLB.fog[79].dispatcher localJobs_class_1 518125
scalar FogNoLB.fog[79].server[0] rho 0.79925072193146
scalar FogNoLB.fog[79].server[0] congestionRatio 0
scalar FogNoLB.fog[79].server[0] totalJobs 518125
scalar FogNoLB.fog[79].server[0] droppedJobsQueue 29
scalar FogNoLB.fog[79].server[0] droppedJobsTimout 4464
scalar FogNoLB.fog[79].server[0] droppedJobsSLA 0
scalar FogNoLB.fog[79].server[0] droppedJobsTotal 4493
scalar FogNoLB.fog[80].dispatcher localJobs 517859
scalar FogNoLB.fog[80].dispatcher remoteJobs 0
scalar FogNoLB.fog[80].dispatcher probeQueries 0
scalar FogNoLB.fog[80].dispatcher probeAnswers 0
scalar FogNoLB.fog[80].dispatcher droppedJobsSLA 0
scalar FogNoLB.fog[80].dispatcher jobs_class_1 517859
scalar FogNoLB.fog[80].dispatcher localJobs_class_1 517859
scalar FogNoLB.fog[80].server[0] rho 0.79872190952301
scalar FogNoLB.fog[80].server[0] congestionRatio 0
scalar FogNoLB.fog[80].server[0] totalJobs 517859
scalar FogNoLB.fog[80].server[0] droppedJobsQueue 23
scalar FogNoLB.fog[80].server[0] droppedJobsTimout 4791
scalar FogNoLB.fog[80].server[0] droppedJobsSLA 0
scalar FogNoLB.fog[80].server[0] droppedJobsTotal 4814
scalar FogNoLB.fog[81].dispatcher localJobs 516714
scalar FogNoLB.fog[81].dispatcher remoteJobs 0
scalar FogNoLB.fog[81].dispatcher probeQueries 0
scalar FogNoLB.fog[81].dispatcher probeAnswers 0
scalar FogNoLB.fog[81].dispatcher droppedJobsSLA 0
scalar FogNoLB.fog[81].dispatcher jobs_class_1 516714
scalar FogNoLB.fog[81].dispatcher localJobs_class_1 516714
scalar FogNoLB.fog[81].server[0] rho 0.79713934659958
scalar FogNoLB.fog[81].server[0] congestionRatio 0
scalar FogNoLB.fog[81].server[0] totalJobs 516714
scalar FogNoLB.fog[81].server[0] droppedJobsQueue 20
scalar FogNoLB.fog[81].server[0] droppedJobsTimout 4335
scalar FogNoLB.fog[81].server[0] droppedJobsSLA 0
scalar FogNoLB.fog[81].server[0] droppedJobsTotal 4355
scalar FogNoLB.fog[82].dispatcher localJobs 516800
scalar FogNoLB.fog[82].dispatcher remoteJobs 0
scalar FogNoLB.fog[82].dispatcher probeQueries 0
scalar FogNoLB.fog[82].dispatcher probeAnswers 0
scalar FogNoLB.fog[82].dispatcher droppedJobsSLA 0
scalar FogNoLB.fog[82].dispatcher jobs_class_1 516800
scalar FogNoLB.fog[82].dispatcher localJobs_class_1 516800
scalar FogNoLB.fog[82].server[0] rho 0.79726642370224
scalar FogNoLB.fog[82].server[0] congestionRatio 0
scalar FogNoLB.fog[82].server[0] totalJobs 516800
scalar FogNoLB.fog[82].server[0] droppedJobsQueue 26
scalar FogNoLB.fog[82].server[0] droppedJobsTimout 4423
scalar FogNoLB.fog[82].server[0] droppedJobsSLA 0
scalar FogNoLB.fog[82].server[0] droppedJobsTotal 4449
scalar FogNoLB.fog[83].dispatcher localJobs 517602
scalar FogNoLB.fog[83].dispatcher remoteJobs 0
scalar FogNoLB.fog[83].dispatcher probeQueries 0
scalar FogNoLB.fog[83].dispatcher probeAnswers 0
scalar FogNoLB.fog[83].dispatcher droppedJobsSLA 0
scalar FogNoLB.fog[83].dispatcher jobs_class_1 517602
scalar FogNoLB.fog[83].dispatcher localJobs_class_1 517602
scalar FogNoLB.fog[83].server[0] rho 0.79863625764847
scalar FogNoLB.fog[83].server[0] congestionRatio 0
scalar FogNoLB.fog[83].server[0] totalJobs 517602
scalar FogNoLB.fog[83].server[0] droppedJobsQueue 17
scalar FogNoLB.fog[83].server[0] droppedJobsTimout 4230
scalar FogNoLB.fog[83].server[0] droppedJobsSLA 0
scalar FogNoLB.fog[83].server[0] droppedJobsTotal 4247
scalar FogNoLB.fog[84].dispatcher localJobs 516357
scalar FogNoLB.fog[84].dispatcher remoteJobs 0
scalar FogNoLB.fog[84].dispatcher probeQueries 0
scalar FogNoLB.fog[84].dispatcher probeAnswers 0
scalar FogNoLB.fog[84].dispatcher droppedJobsSLA 0
scalar FogNoLB.fog[84].dispatcher jobs_class_1 516357
scalar FogNoLB.fog[84].dispatcher localJobs_class_1 516357
scalar FogNoLB.fog[84].server[0] rho 0.79650682210922
scalar FogNoLB.fog[84].server[0] congestionRatio 0
scalar FogNoLB.fog[84].server[0] totalJobs 516357
scalar FogNoLB.fog[84].server[0] droppedJobsQueue 31
scalar FogNoLB.fog[84].server[0] droppedJobsTimout 4460
scalar FogNoLB.fog[84].server[0] droppedJobsSLA 0
scalar FogNoLB.fog[84].server[0] droppedJobsTotal 4491
scalar FogNoLB.fog[85].dispatcher localJobs 516595
scalar FogNoLB.fog[85].dispatcher remoteJobs 0
scalar FogNoLB.fog[85].dispatcher probeQueries 0
scalar FogNoLB.fog[85].dispatcher probeAnswers 0
scalar FogNoLB.fog[85].dispatcher droppedJobsSLA 0
scalar FogNoLB.fog[85].dispatcher jobs_class_1 516595
scalar FogNoLB.fog[85].dispatcher localJobs_class_1 516595
scalar FogNoLB.fog[85].server[0] rho 0.79684907197952
scalar FogNoLB.fog[85].server[0] congestionRatio 0
scalar FogNoLB.fog[85].server[0] totalJobs 516595
scalar FogNoLB.fog[85].server[0] droppedJobsQueue 18
scalar FogNoLB.fog[85].server[0] droppedJobsTimout 4819
scalar FogNoLB.fog[85].server[0] droppedJobsSLA 0
scalar FogNoLB.fog[85].server[0] droppedJobsTotal 4837
scalar FogNoLB.fog[86].dispatcher localJobs 518052
scalar FogNoLB.fog[86].dispatcher remoteJobs 0
scalar FogNoLB.fog[86].dispatcher probeQueries 0
scalar FogNoLB.fog[86].dispatcher probeAnswers 0
scalar FogNoLB.fog[86].dispatcher droppedJobsSLA 0
scalar FogNoLB.fog[86].dispatcher jobs_class_1 518052
scalar FogNoLB.fog[86].dispatcher localJobs_class_1 518052
scalar FogNoLB.fog[86].server[0] rho 0.79917043447495
scalar FogNoLB.fog[86].server[0] congestionRatio 0
scalar FogNoLB.fog[86].server[0] totalJobs 518052
scalar FogNoLB.fog[86].server[0] droppedJobsQueue 42
scalar FogNoLB.fog[86].server[0] droppedJobsTimout 4435
scalar FogNoLB.fog[86].server[0] droppedJobsSLA 0
scalar FogNoLB.fog[86].server[0] droppedJobsTotal 4477
scalar FogNoLB.fog[87].dispatcher localJobs 517953
scalar FogNoLB.fog[87].dispatcher remoteJobs 0
scalar FogNoLB.fog[87].dispatcher probeQueries 0
scalar FogNoLB.fog[87].dispatcher probeAnswers 0
scalar FogNoLB.fog[87].dispatcher droppedJobsSLA 0
scalar FogNoLB.fog[87].dispatcher jobs_class_1 517953
scalar FogNoLB.fog[87].dispatcher localJobs_class_1 517953
scalar FogNoLB.fog[87].server[0] rho 0.7989342212677
scalar FogNoLB.fog[87].server[0] congestionRatio 0
scalar FogNoLB.fog[87].server[0] totalJobs 517953
scalar FogNoLB.fog[87].server[0] droppedJobsQueue 16
scalar FogNoLB.fog[87].server[0] droppedJobsTimout 4702
scalar FogNoLB.fog[87].server[0] droppedJobsSLA 0
scalar FogNoLB.fog[87].server[0] droppedJobsTotal 4718
scalar FogNoLB.fog[88].dispatcher localJobs 516877
scalar FogNoLB.fog[88].dispatcher remoteJobs 0
scalar FogNoLB.fog[88].dispatcher probeQueries 0
scalar FogNoLB.fog[88].dispatcher probeAnswers 0
scalar FogNoLB.fog[88].dispatcher droppedJobsSLA 0
scalar FogNoLB.fog[88].dispatcher jobs_class_1 516877
scalar FogNoLB.fog[88].dispatcher localJobs_class_1 516877
scalar FogNoLB.fog[88].server[0] rho 0.79738384485245
scalar FogNoLB.fog[88].server[0] congestionRatio 0
scalar FogNoLB.fog[88].server[0] totalJobs 516877
scalar FogNoLB.fog[88].server[0] droppedJobsQueue 33
scalar FogNoLB.fog[88].server[0] droppedJobsTimout 4473
scalar FogNoLB.fog[88].server[0] droppedJobsSLA 0
scalar FogNoLB.fog[88].server[0] droppedJobsTotal 4506
scalar FogNoLB.fog[89].dispatcher localJobs 517459
scalar FogNoLB.fog[89].dispatcher remoteJobs 0
scalar FogNoLB.fog[89].dispatcher probeQueries 0
scalar FogNoLB.fog[89].dispatcher probeAnswers 0
scalar FogNoLB.fog[89].dispatcher droppedJobsSLA 0
scalar FogNoLB.fog[89].dispatcher jobs_class_1 517459
scalar FogNoLB.fog[89].dispatcher localJobs_class_1 517459
scalar FogNoLB.fog[89].server[0] rho 0.79836046695709
scalar FogNoLB.fog[89].server[0] congestionRatio 0
scalar FogNoLB.fog[89].server[0] totalJobs 517459
scalar FogNoLB.fog[89].server[0] droppedJobsQueue 29
scalar FogNoLB.fog[89].server[0] droppedJobsTimout 4225
scalar FogNoLB.fog[89].server[0] droppedJobsSLA 0
scalar FogNoLB.fog[89].server[0] droppedJobsTotal 4254
scalar FogNoLB.fog[90].dispatcher localJobs 518169
scalar FogNoLB.fog[90].dispatcher remoteJobs 0
scalar FogNoLB.fog[90].dispatcher probeQueries 0
scalar FogNoLB.fog[90].dispatcher probeAnswers 0
scalar FogNoLB.fog[90].dispatcher droppedJobsSLA 0
scalar FogNoLB.fog[90].dispatcher jobs_class_1 518169
scalar FogNoLB.fog[90].dispatcher localJobs_class_1 518169
scalar FogNoLB.fog[90].server[0] rho 0.79934287071228
scalar FogNoLB.fog[90].server[0] congestionRatio 0
scalar FogNoLB.fog[90].server[0] totalJobs 518169
scalar FogNoLB.fog[90].server[0] droppedJobsQueue 13
scalar FogNoLB.fog[90].server[0] droppedJobsTimout 4507
scalar FogNoLB.fog[90].server[0] droppedJobsSLA 0
scalar FogNoLB.fog[90].server[0] droppedJobsTotal 4520
scalar FogNoLB.fog[91].dispatcher localJobs 516998
scalar FogNoLB.fog[91].dispatcher remoteJobs 0
scalar FogNoLB.fog[91].dispatcher probeQueries 0
scalar FogNoLB.fog[91].dispatcher probeAnswers 0
scalar FogNoLB.fog[91].dispatcher droppedJobsSLA 0
scalar FogNoLB.fog[91].dispatcher jobs_class_1 516998
scalar FogNoLB.fog[91].dispatcher localJobs_class_1 516998
scalar FogNoLB.fog[91].server[0] rho 0.79746234416962
scalar FogNoLB.fog[91].server[0] congestionRatio 0
scalar FogNoLB.fog[91].server[0] totalJobs 516998
scalar FogNoLB.fog[91].server[0] droppedJobsQueue 29
scalar FogNoLB.fog[91].server[0] droppedJobsTimout 4554
scalar FogNoLB.fog[91].server[0] droppedJobsSLA 0
scalar FogNoLB.fog[91].server[0] droppedJobsTotal 4583
scalar FogNoLB.fog[92].dispatcher localJobs 516401
scalar FogNoLB.fog[92].dispatcher remoteJobs 0
scalar FogNoLB.fog[92].dispatcher probeQueries 0
scalar FogNoLB.fog[92].dispatcher probeAnswers 0
scalar FogNoLB.fog[92].dispatcher droppedJobsSLA 0
scalar FogNoLB.fog[92].dispatcher jobs_class_1 516401
scalar FogNoLB.fog[92].dispatcher localJobs_class_1 516401
scalar FogNoLB.fog[92].server[0] rho 0.79666346311569
scalar FogNoLB.fog[92].server[0] congestionRatio 0
scalar FogNoLB.fog[92].server[0] totalJobs 516401
scalar FogNoLB.fog[92].server[0] droppedJobsQueue 40
scalar FogNoLB.fog[92].server[0] droppedJobsTimout 4434
scalar FogNoLB.fog[92].server[0] droppedJobsSLA 0
scalar FogNoLB.fog[92].server[0] droppedJobsTotal 4474
scalar FogNoLB.fog[93].dispatcher localJobs 516704
scalar FogNoLB.fog[93].dispatcher remoteJobs 0
scalar FogNoLB.fog[93].dispatcher probeQueries 0
scalar FogNoLB.fog[93].dispatcher probeAnswers 0
scalar FogNoLB.fog[93].dispatcher droppedJobsSLA 0
scalar FogNoLB.fog[93].dispatcher jobs_class_1 516704
scalar FogNoLB.fog[93].dispatcher localJobs_class_1 516704
scalar FogNoLB.fog[93].server[0] rho 0.79721140861511
scalar FogNoLB.fog[93].server[0] congestionRatio 0
scalar FogNoLB.fog[93].server[0] totalJobs 516704
scalar FogNoLB.fog[93].server[0] droppedJobsQueue 11
scalar FogNoLB.fog[93].server[0] droppedJobsTimout 4288
scalar FogNoLB.fog[93].server[0] droppedJobsSLA 0
scalar FogNoLB.fog[93].server[0] droppedJobsTotal 4299
scalar FogNoLB.fog[94].dispatcher localJobs 518045
scalar FogNoLB.fog[94].dispatcher remoteJobs 0
scalar FogNoLB.fog[94].dispatcher probeQueries 0
scalar FogNoLB.fog[94].dispatcher probeAnswers 0
scalar FogNoLB.fog[94].dispatcher droppedJobsSLA 0
scalar FogNoLB.fog[94].dispatcher jobs_class_1 518045
scalar FogNoLB.fog[94].dispatcher localJobs_class_1 518045
scalar FogNoLB.fog[94].server[0] rho 0.79913872480392
scalar FogNoLB.fog[94].server[0] congestionRatio 0
scalar FogNoLB.fog[94].server[0] totalJobs 518045
scalar FogNoLB.fog[94].server[0] droppedJobsQueue 10
scalar FogNoLB.fog[94].server[0] droppedJobsTimout 4541
scalar FogNoLB.fog[94].server[0] droppedJobsSLA 0
scalar FogNoLB.fog[94].server[0] droppedJobsTotal 4551
scalar FogNoLB.fog[95].dispatcher localJobs 516500
scalar FogNoLB.fog[95].dispatcher remoteJobs 0
scalar FogNoLB.fog[95].dispatcher probeQueries 0
scalar FogNoLB.fog[95].dispatcher probeAnswers 0
scalar FogNoLB.fog[95].dispatcher droppedJobsSLA 0
scalar FogNoLB.fog[95].dispatcher jobs_class_1 516500
scalar FogNoLB.fog[95].dispatcher localJobs_class_1 516500
scalar FogNoLB.fog[95].server[0] rho 0.79688143730164
scalar FogNoLB.fog[95].server[0] congestionRatio 0
scalar FogNoLB.fog[95].server[0] totalJobs 516500
scalar FogNoLB.fog[95].server[0] droppedJobsQueue 22
scalar FogNoLB.fog[95].server[0] droppedJobsTimout 4265
scalar FogNoLB.fog[95].server[0] droppedJobsSLA 0
scalar FogNoLB.fog[95].server[0] droppedJobsTotal 4287
scalar FogNoLB.fog[96].dispatcher localJobs 517657
scalar FogNoLB.fog[96].dispatcher remoteJobs 0
scalar FogNoLB.fog[96].dispatcher probeQueries 0
scalar FogNoLB.fog[96].dispatcher probeAnswers 0
scalar FogNoLB.fog[96].dispatcher droppedJobsSLA 0
scalar FogNoLB.fog[96].dispatcher jobs_class_1 517657
scalar FogNoLB.fog[96].dispatcher localJobs_class_1 517657
scalar FogNoLB.fog[96].server[0] rho 0.79872459173203
scalar FogNoLB.fog[96].server[0] congestionRatio 0
scalar FogNoLB.fog[96].server[0] totalJobs 517657
scalar FogNoLB.fog[96].server[0] droppedJobsQueue 10
scalar FogNoLB.fog[96].server[0] droppedJobsTimout 4258
scalar FogNoLB.fog[96].server[0] droppedJobsSLA 0
scalar FogNoLB.fog[96].server[0] droppedJobsTotal 4268
scalar FogNoLB.fog[97].dispatcher localJobs 517363
scalar FogNoLB.fog[97].dispatcher remoteJobs 0
scalar FogNoLB.fog[97].dispatcher probeQueries 0
scalar FogNoLB.fog[97].dispatcher probeAnswers 0
scalar FogNoLB.fog[97].dispatcher droppedJobsSLA 0
scalar FogNoLB.fog[97].dispatcher jobs_class_1 517363
scalar FogNoLB.fog[97].dispatcher localJobs_class_1 517363
scalar FogNoLB.fog[97].server[0] rho 0.79830455780029
scalar FogNoLB.fog[97].server[0] congestionRatio 0
scalar FogNoLB.fog[97].server[0] totalJobs 517363
scalar FogNoLB.fog[97].server[0] droppedJobsQueue 18
scalar FogNoLB.fog[97].server[0] droppedJobsTimout 4077
scalar FogNoLB.fog[97].server[0] droppedJobsSLA 0
scalar FogNoLB.fog[97].server[0] droppedJobsTotal 4095
scalar FogNoLB.fog[98].dispatcher localJobs 517718
scalar FogNoLB.fog[98].dispatcher remoteJobs 0
scalar FogNoLB.fog[98].dispatcher probeQueries 0
scalar FogNoLB.fog[98].dispatcher probeAnswers 0
scalar FogNoLB.fog[98].dispatcher droppedJobsSLA 0
scalar FogNoLB.fog[98].dispatcher jobs_class_1 517718
scalar FogNoLB.fog[98].dispatcher localJobs_class_1 517718
scalar FogNoLB.fog[98].server[0] rho 0.79861289262772
scalar FogNoLB.fog[98].server[0] congestionRatio 0
scalar FogNoLB.fog[98].server[0] totalJobs 517718
scalar FogNoLB.fog[98].server[0] droppedJobsQueue 12
scalar FogNoLB.fog[98].server[0] droppedJobsTimout 4509
scalar FogNoLB.fog[98].server[0] droppedJobsSLA 0
scalar FogNoLB.fog[98].server[0] droppedJobsTotal 4521
scalar FogNoLB.fog[99].dispatcher localJobs 514842
scalar FogNoLB.fog[99].dispatcher remoteJobs 0
scalar FogNoLB.fog[99].dispatcher probeQueries 0
scalar FogNoLB.fog[99].dispatcher probeAnswers 0
scalar FogNoLB.fog[99].dispatcher droppedJobsSLA 0
scalar FogNoLB.fog[99].dispatcher jobs_class_1 514842
scalar FogNoLB.fog[99].dispatcher localJobs_class_1 514842
scalar FogNoLB.fog[99].server[0] rho 0.79421377182007
scalar FogNoLB.fog[99].server[0] congestionRatio 0
scalar FogNoLB.fog[99].server[0] totalJobs 514842
scalar FogNoLB.fog[99].server[0] droppedJobsQueue 29
scalar FogNoLB.fog[99].server[0] droppedJobsTimout 4415
scalar FogNoLB.fog[99].server[0] droppedJobsSLA 0
scalar FogNoLB.fog[99].server[0] droppedJobsTotal 4444
scalar FogNoLB.sink avg_responseTime_1 0.047284051562616
scalar FogNoLB.sink p90_responseTime_1 0.014761328794
scalar FogNoLB.sink med_responseTime_1 0.014761328794
scalar FogNoLB.sink avg_delayTime_1 0
scalar FogNoLB.sink p90_delayTime_1 0
scalar FogNoLB.sink med_delayTime_1 0
scalar FogNoLB.sink avg_queuingTime_1 0.030584118271869
scalar FogNoLB.sink p90_queuingTime_1 0
scalar FogNoLB.sink med_queuingTime_1 0
scalar FogNoLB.sink avg_serviceTime_1 0.016699933290737
scalar FogNoLB.sink p90_serviceTime_1 0.014638923562
scalar FogNoLB.sink med_serviceTime_1 0.014638923562
scalar FogNoLB.sink avg_balancerTime_1 0
scalar FogNoLB.sink p90_balancerTime_1 0
scalar FogNoLB.sink med_balancerTime_1 0
scalar FogNoLB.sink avg_balancerCount_1 1
scalar FogNoLB.sink p90_balancerCount_1 1
scalar FogNoLB.sink med_balancerCount_1 1

