version 2
run Fog-mul_1-rho_05-thr_5-2-20190711-22:44:53-62700
attr configname Fog-mul_1-rho_05-thr_5
attr datetime 20190711-22:44:53
attr experiment Fog-mul_1-rho_05-thr_5
attr inifile FogQueueLen.ini
attr iterationvars ""
attr iterationvarsf ""
attr measurement ""
attr network FogNoLB
attr processid 62700
attr repetition 2
attr replication #2
attr resultdir results
attr runnumber 2
attr seedset 2
param FogNoLB.proctimeMul 1
param FogNoLB.rho 0.5
param FogNoLB.fog[*].server[*].capacity 5
param FogNoLB.nSources 100
param FogNoLB.rho 0.9
param FogNoLB.proctimeMul 1.0
param FogNoLB.source[*].appId 1
param FogNoLB.fog[*].nServers 1
param FogNoLB.fog[*].dispatcher.fanOut 1
param FogNoLB.fog[*].server[*].timeSlice -1s
param FogNoLB.fog[*].server[*].capacity 5
param FogNoLB.fog[*].server[*].fifo true
param FogNoLB.fog[*].server[*].maxServiceTime -1s

scalar FogNoLB.fog[0].dispatcher localJobs 3251
scalar FogNoLB.fog[0].dispatcher remoteJobs 0
scalar FogNoLB.fog[0].dispatcher probeQueries 0
scalar FogNoLB.fog[0].dispatcher probeAnswers 0
scalar FogNoLB.fog[0].dispatcher droppedJobsSLA 0
scalar FogNoLB.fog[0].dispatcher jobs_class_1 3251
scalar FogNoLB.fog[0].dispatcher localJobs_class_1 3251
scalar FogNoLB.fog[0].server[0] rho 0.50258630514145
scalar FogNoLB.fog[0].server[0] congestionRatio 0
scalar FogNoLB.fog[0].server[0] totalJobs 3251
scalar FogNoLB.fog[0].server[0] droppedJobsQueue 1
scalar FogNoLB.fog[0].server[0] droppedJobsTimout 0
scalar FogNoLB.fog[0].server[0] droppedJobsSLA 0
scalar FogNoLB.fog[0].server[0] droppedJobsTotal 1
scalar FogNoLB.fog[1].dispatcher localJobs 3220
scalar FogNoLB.fog[1].dispatcher remoteJobs 0
scalar FogNoLB.fog[1].dispatcher probeQueries 0
scalar FogNoLB.fog[1].dispatcher probeAnswers 0
scalar FogNoLB.fog[1].dispatcher droppedJobsSLA 0
scalar FogNoLB.fog[1].dispatcher jobs_class_1 3220
scalar FogNoLB.fog[1].dispatcher localJobs_class_1 3220
scalar FogNoLB.fog[1].server[0] rho 0.49731016159058
scalar FogNoLB.fog[1].server[0] congestionRatio 0
scalar FogNoLB.fog[1].server[0] totalJobs 3220
scalar FogNoLB.fog[1].server[0] droppedJobsQueue 3
scalar FogNoLB.fog[1].server[0] droppedJobsTimout 0
scalar FogNoLB.fog[1].server[0] droppedJobsSLA 0
scalar FogNoLB.fog[1].server[0] droppedJobsTotal 3
scalar FogNoLB.fog[2].dispatcher localJobs 3254
scalar FogNoLB.fog[2].dispatcher remoteJobs 0
scalar FogNoLB.fog[2].dispatcher probeQueries 0
scalar FogNoLB.fog[2].dispatcher probeAnswers 0
scalar FogNoLB.fog[2].dispatcher droppedJobsSLA 0
scalar FogNoLB.fog[2].dispatcher jobs_class_1 3254
scalar FogNoLB.fog[2].dispatcher localJobs_class_1 3254
scalar FogNoLB.fog[2].server[0] rho 0.50250440835953
scalar FogNoLB.fog[2].server[0] congestionRatio 0
scalar FogNoLB.fog[2].server[0] totalJobs 3254
scalar FogNoLB.fog[2].server[0] droppedJobsQueue 3
scalar FogNoLB.fog[2].server[0] droppedJobsTimout 0
scalar FogNoLB.fog[2].server[0] droppedJobsSLA 0
scalar FogNoLB.fog[2].server[0] droppedJobsTotal 3
scalar FogNoLB.fog[3].dispatcher localJobs 3182
scalar FogNoLB.fog[3].dispatcher remoteJobs 0
scalar FogNoLB.fog[3].dispatcher probeQueries 0
scalar FogNoLB.fog[3].dispatcher probeAnswers 0
scalar FogNoLB.fog[3].dispatcher droppedJobsSLA 0
scalar FogNoLB.fog[3].dispatcher jobs_class_1 3182
scalar FogNoLB.fog[3].dispatcher localJobs_class_1 3182
scalar FogNoLB.fog[3].server[0] rho 0.49238383769989
scalar FogNoLB.fog[3].server[0] congestionRatio 0
scalar FogNoLB.fog[3].server[0] totalJobs 3182
scalar FogNoLB.fog[3].server[0] droppedJobsQueue 0
scalar FogNoLB.fog[3].server[0] droppedJobsTimout 0
scalar FogNoLB.fog[3].server[0] droppedJobsSLA 0
scalar FogNoLB.fog[3].server[0] droppedJobsTotal 0
scalar FogNoLB.fog[4].dispatcher localJobs 3245
scalar FogNoLB.fog[4].dispatcher remoteJobs 0
scalar FogNoLB.fog[4].dispatcher probeQueries 0
scalar FogNoLB.fog[4].dispatcher probeAnswers 0
scalar FogNoLB.fog[4].dispatcher droppedJobsSLA 0
scalar FogNoLB.fog[4].dispatcher jobs_class_1 3245
scalar FogNoLB.fog[4].dispatcher localJobs_class_1 3245
scalar FogNoLB.fog[4].server[0] rho 0.50081199407578
scalar FogNoLB.fog[4].server[0] congestionRatio 0
scalar FogNoLB.fog[4].server[0] totalJobs 3245
scalar FogNoLB.fog[4].server[0] droppedJobsQueue 8
scalar FogNoLB.fog[4].server[0] droppedJobsTimout 0
scalar FogNoLB.fog[4].server[0] droppedJobsSLA 0
scalar FogNoLB.fog[4].server[0] droppedJobsTotal 8
scalar FogNoLB.fog[5].dispatcher localJobs 3225
scalar FogNoLB.fog[5].dispatcher remoteJobs 0
scalar FogNoLB.fog[5].dispatcher probeQueries 0
scalar FogNoLB.fog[5].dispatcher probeAnswers 0
scalar FogNoLB.fog[5].dispatcher droppedJobsSLA 0
scalar FogNoLB.fog[5].dispatcher jobs_class_1 3225
scalar FogNoLB.fog[5].dispatcher localJobs_class_1 3225
scalar FogNoLB.fog[5].server[0] rho 0.49806186556816
scalar FogNoLB.fog[5].server[0] congestionRatio 0
scalar FogNoLB.fog[5].server[0] totalJobs 3225
scalar FogNoLB.fog[5].server[0] droppedJobsQueue 2
scalar FogNoLB.fog[5].server[0] droppedJobsTimout 0
scalar FogNoLB.fog[5].server[0] droppedJobsSLA 0
scalar FogNoLB.fog[5].server[0] droppedJobsTotal 2
scalar FogNoLB.fog[6].dispatcher localJobs 3252
scalar FogNoLB.fog[6].dispatcher remoteJobs 0
scalar FogNoLB.fog[6].dispatcher probeQueries 0
scalar FogNoLB.fog[6].dispatcher probeAnswers 0
scalar FogNoLB.fog[6].dispatcher droppedJobsSLA 0
scalar FogNoLB.fog[6].dispatcher jobs_class_1 3252
scalar FogNoLB.fog[6].dispatcher localJobs_class_1 3252
scalar FogNoLB.fog[6].server[0] rho 0.50244480371475
scalar FogNoLB.fog[6].server[0] congestionRatio 0
scalar FogNoLB.fog[6].server[0] totalJobs 3252
scalar FogNoLB.fog[6].server[0] droppedJobsQueue 4
scalar FogNoLB.fog[6].server[0] droppedJobsTimout 0
scalar FogNoLB.fog[6].server[0] droppedJobsSLA 0
scalar FogNoLB.fog[6].server[0] droppedJobsTotal 4
scalar FogNoLB.fog[7].dispatcher localJobs 3288
scalar FogNoLB.fog[7].dispatcher remoteJobs 0
scalar FogNoLB.fog[7].dispatcher probeQueries 0
scalar FogNoLB.fog[7].dispatcher probeAnswers 0
scalar FogNoLB.fog[7].dispatcher droppedJobsSLA 0
scalar FogNoLB.fog[7].dispatcher jobs_class_1 3288
scalar FogNoLB.fog[7].dispatcher localJobs_class_1 3288
scalar FogNoLB.fog[7].server[0] rho 0.50706112384796
scalar FogNoLB.fog[7].server[0] congestionRatio 0
scalar FogNoLB.fog[7].server[0] totalJobs 3288
scalar FogNoLB.fog[7].server[0] droppedJobsQueue 9
scalar FogNoLB.fog[7].server[0] droppedJobsTimout 0
scalar FogNoLB.fog[7].server[0] droppedJobsSLA 0
scalar FogNoLB.fog[7].server[0] droppedJobsTotal 9
scalar FogNoLB.fog[8].dispatcher localJobs 3108
scalar FogNoLB.fog[8].dispatcher remoteJobs 0
scalar FogNoLB.fog[8].dispatcher probeQueries 0
scalar FogNoLB.fog[8].dispatcher probeAnswers 0
scalar FogNoLB.fog[8].dispatcher droppedJobsSLA 0
scalar FogNoLB.fog[8].dispatcher jobs_class_1 3108
scalar FogNoLB.fog[8].dispatcher localJobs_class_1 3108
scalar FogNoLB.fog[8].server[0] rho 0.48039346933365
scalar FogNoLB.fog[8].server[0] congestionRatio 0
scalar FogNoLB.fog[8].server[0] totalJobs 3108
scalar FogNoLB.fog[8].server[0] droppedJobsQueue 1
scalar FogNoLB.fog[8].server[0] droppedJobsTimout 0
scalar FogNoLB.fog[8].server[0] droppedJobsSLA 0
scalar FogNoLB.fog[8].server[0] droppedJobsTotal 1
scalar FogNoLB.fog[9].dispatcher localJobs 3280
scalar FogNoLB.fog[9].dispatcher remoteJobs 0
scalar FogNoLB.fog[9].dispatcher probeQueries 0
scalar FogNoLB.fog[9].dispatcher probeAnswers 0
scalar FogNoLB.fog[9].dispatcher droppedJobsSLA 0
scalar FogNoLB.fog[9].dispatcher jobs_class_1 3280
scalar FogNoLB.fog[9].dispatcher localJobs_class_1 3280
scalar FogNoLB.fog[9].server[0] rho 0.50697910785675
scalar FogNoLB.fog[9].server[0] congestionRatio 0
scalar FogNoLB.fog[9].server[0] totalJobs 3280
scalar FogNoLB.fog[9].server[0] droppedJobsQueue 0
scalar FogNoLB.fog[9].server[0] droppedJobsTimout 0
scalar FogNoLB.fog[9].server[0] droppedJobsSLA 0
scalar FogNoLB.fog[9].server[0] droppedJobsTotal 0
scalar FogNoLB.fog[10].dispatcher localJobs 3301
scalar FogNoLB.fog[10].dispatcher remoteJobs 0
scalar FogNoLB.fog[10].dispatcher probeQueries 0
scalar FogNoLB.fog[10].dispatcher probeAnswers 0
scalar FogNoLB.fog[10].dispatcher droppedJobsSLA 0
scalar FogNoLB.fog[10].dispatcher jobs_class_1 3301
scalar FogNoLB.fog[10].dispatcher localJobs_class_1 3301
scalar FogNoLB.fog[10].server[0] rho 0.50975567102432
scalar FogNoLB.fog[10].server[0] congestionRatio 0
scalar FogNoLB.fog[10].server[0] totalJobs 3301
scalar FogNoLB.fog[10].server[0] droppedJobsQueue 4
scalar FogNoLB.fog[10].server[0] droppedJobsTimout 0
scalar FogNoLB.fog[10].server[0] droppedJobsSLA 0
scalar FogNoLB.fog[10].server[0] droppedJobsTotal 4
scalar FogNoLB.fog[11].dispatcher localJobs 3221
scalar FogNoLB.fog[11].dispatcher remoteJobs 0
scalar FogNoLB.fog[11].dispatcher probeQueries 0
scalar FogNoLB.fog[11].dispatcher probeAnswers 0
scalar FogNoLB.fog[11].dispatcher droppedJobsSLA 0
scalar FogNoLB.fog[11].dispatcher jobs_class_1 3221
scalar FogNoLB.fog[11].dispatcher localJobs_class_1 3221
scalar FogNoLB.fog[11].server[0] rho 0.4978945851326
scalar FogNoLB.fog[11].server[0] congestionRatio 0
scalar FogNoLB.fog[11].server[0] totalJobs 3221
scalar FogNoLB.fog[11].server[0] droppedJobsQueue 1
scalar FogNoLB.fog[11].server[0] droppedJobsTimout 0
scalar FogNoLB.fog[11].server[0] droppedJobsSLA 0
scalar FogNoLB.fog[11].server[0] droppedJobsTotal 1
scalar FogNoLB.fog[12].dispatcher localJobs 3182
scalar FogNoLB.fog[12].dispatcher remoteJobs 0
scalar FogNoLB.fog[12].dispatcher probeQueries 0
scalar FogNoLB.fog[12].dispatcher probeAnswers 0
scalar FogNoLB.fog[12].dispatcher droppedJobsSLA 0
scalar FogNoLB.fog[12].dispatcher jobs_class_1 3182
scalar FogNoLB.fog[12].dispatcher localJobs_class_1 3182
scalar FogNoLB.fog[12].server[0] rho 0.49166369438171
scalar FogNoLB.fog[12].server[0] congestionRatio 0
scalar FogNoLB.fog[12].server[0] totalJobs 3182
scalar FogNoLB.fog[12].server[0] droppedJobsQueue 0
scalar FogNoLB.fog[12].server[0] droppedJobsTimout 0
scalar FogNoLB.fog[12].server[0] droppedJobsSLA 0
scalar FogNoLB.fog[12].server[0] droppedJobsTotal 0
scalar FogNoLB.fog[13].dispatcher localJobs 3268
scalar FogNoLB.fog[13].dispatcher remoteJobs 0
scalar FogNoLB.fog[13].dispatcher probeQueries 0
scalar FogNoLB.fog[13].dispatcher probeAnswers 0
scalar FogNoLB.fog[13].dispatcher droppedJobsSLA 0
scalar FogNoLB.fog[13].dispatcher jobs_class_1 3268
scalar FogNoLB.fog[13].dispatcher localJobs_class_1 3268
scalar FogNoLB.fog[13].server[0] rho 0.50515931844711
scalar FogNoLB.fog[13].server[0] congestionRatio 0
scalar FogNoLB.fog[13].server[0] totalJobs 3268
scalar FogNoLB.fog[13].server[0] droppedJobsQueue 1
scalar FogNoLB.fog[13].server[0] droppedJobsTimout 0
scalar FogNoLB.fog[13].server[0] droppedJobsSLA 0
scalar FogNoLB.fog[13].server[0] droppedJobsTotal 1
scalar FogNoLB.fog[14].dispatcher localJobs 3298
scalar FogNoLB.fog[14].dispatcher remoteJobs 0
scalar FogNoLB.fog[14].dispatcher probeQueries 0
scalar FogNoLB.fog[14].dispatcher probeAnswers 0
scalar FogNoLB.fog[14].dispatcher droppedJobsSLA 0
scalar FogNoLB.fog[14].dispatcher jobs_class_1 3298
scalar FogNoLB.fog[14].dispatcher localJobs_class_1 3298
scalar FogNoLB.fog[14].server[0] rho 0.50967645645142
scalar FogNoLB.fog[14].server[0] congestionRatio 0
scalar FogNoLB.fog[14].server[0] totalJobs 3298
scalar FogNoLB.fog[14].server[0] droppedJobsQueue 2
scalar FogNoLB.fog[14].server[0] droppedJobsTimout 0
scalar FogNoLB.fog[14].server[0] droppedJobsSLA 0
scalar FogNoLB.fog[14].server[0] droppedJobsTotal 2
scalar FogNoLB.fog[15].dispatcher localJobs 3279
scalar FogNoLB.fog[15].dispatcher remoteJobs 0
scalar FogNoLB.fog[15].dispatcher probeQueries 0
scalar FogNoLB.fog[15].dispatcher probeAnswers 0
scalar FogNoLB.fog[15].dispatcher droppedJobsSLA 0
scalar FogNoLB.fog[15].dispatcher jobs_class_1 3279
scalar FogNoLB.fog[15].dispatcher localJobs_class_1 3279
scalar FogNoLB.fog[15].server[0] rho 0.50682783126831
scalar FogNoLB.fog[15].server[0] congestionRatio 0
scalar FogNoLB.fog[15].server[0] totalJobs 3279
scalar FogNoLB.fog[15].server[0] droppedJobsQueue 0
scalar FogNoLB.fog[15].server[0] droppedJobsTimout 0
scalar FogNoLB.fog[15].server[0] droppedJobsSLA 0
scalar FogNoLB.fog[15].server[0] droppedJobsTotal 0
scalar FogNoLB.fog[16].dispatcher localJobs 3249
scalar FogNoLB.fog[16].dispatcher remoteJobs 0
scalar FogNoLB.fog[16].dispatcher probeQueries 0
scalar FogNoLB.fog[16].dispatcher probeAnswers 0
scalar FogNoLB.fog[16].dispatcher droppedJobsSLA 0
scalar FogNoLB.fog[16].dispatcher jobs_class_1 3249
scalar FogNoLB.fog[16].dispatcher localJobs_class_1 3249
scalar FogNoLB.fog[16].server[0] rho 0.50138229131699
scalar FogNoLB.fog[16].server[0] congestionRatio 0
scalar FogNoLB.fog[16].server[0] totalJobs 3249
scalar FogNoLB.fog[16].server[0] droppedJobsQueue 3
scalar FogNoLB.fog[16].server[0] droppedJobsTimout 0
scalar FogNoLB.fog[16].server[0] droppedJobsSLA 0
scalar FogNoLB.fog[16].server[0] droppedJobsTotal 3
scalar FogNoLB.fog[17].dispatcher localJobs 3213
scalar FogNoLB.fog[17].dispatcher remoteJobs 0
scalar FogNoLB.fog[17].dispatcher probeQueries 0
scalar FogNoLB.fog[17].dispatcher probeAnswers 0
scalar FogNoLB.fog[17].dispatcher droppedJobsSLA 0
scalar FogNoLB.fog[17].dispatcher jobs_class_1 3213
scalar FogNoLB.fog[17].dispatcher localJobs_class_1 3213
scalar FogNoLB.fog[17].server[0] rho 0.49641737341881
scalar FogNoLB.fog[17].server[0] congestionRatio 0
scalar FogNoLB.fog[17].server[0] totalJobs 3213
scalar FogNoLB.fog[17].server[0] droppedJobsQueue 2
scalar FogNoLB.fog[17].server[0] droppedJobsTimout 0
scalar FogNoLB.fog[17].server[0] droppedJobsSLA 0
scalar FogNoLB.fog[17].server[0] droppedJobsTotal 2
scalar FogNoLB.fog[18].dispatcher localJobs 3312
scalar FogNoLB.fog[18].dispatcher remoteJobs 0
scalar FogNoLB.fog[18].dispatcher probeQueries 0
scalar FogNoLB.fog[18].dispatcher probeAnswers 0
scalar FogNoLB.fog[18].dispatcher droppedJobsSLA 0
scalar FogNoLB.fog[18].dispatcher jobs_class_1 3312
scalar FogNoLB.fog[18].dispatcher localJobs_class_1 3312
scalar FogNoLB.fog[18].server[0] rho 0.51178306341171
scalar FogNoLB.fog[18].server[0] congestionRatio 0
scalar FogNoLB.fog[18].server[0] totalJobs 3312
scalar FogNoLB.fog[18].server[0] droppedJobsQueue 0
scalar FogNoLB.fog[18].server[0] droppedJobsTimout 0
scalar FogNoLB.fog[18].server[0] droppedJobsSLA 0
scalar FogNoLB.fog[18].server[0] droppedJobsTotal 0
scalar FogNoLB.fog[19].dispatcher localJobs 3243
scalar FogNoLB.fog[19].dispatcher remoteJobs 0
scalar FogNoLB.fog[19].dispatcher probeQueries 0
scalar FogNoLB.fog[19].dispatcher probeAnswers 0
scalar FogNoLB.fog[19].dispatcher droppedJobsSLA 0
scalar FogNoLB.fog[19].dispatcher jobs_class_1 3243
scalar FogNoLB.fog[19].dispatcher localJobs_class_1 3243
scalar FogNoLB.fog[19].server[0] rho 0.50100523233414
scalar FogNoLB.fog[19].server[0] congestionRatio 0
scalar FogNoLB.fog[19].server[0] totalJobs 3243
scalar FogNoLB.fog[19].server[0] droppedJobsQueue 4
scalar FogNoLB.fog[19].server[0] droppedJobsTimout 0
scalar FogNoLB.fog[19].server[0] droppedJobsSLA 0
scalar FogNoLB.fog[19].server[0] droppedJobsTotal 4
scalar FogNoLB.fog[20].dispatcher localJobs 3182
scalar FogNoLB.fog[20].dispatcher remoteJobs 0
scalar FogNoLB.fog[20].dispatcher probeQueries 0
scalar FogNoLB.fog[20].dispatcher probeAnswers 0
scalar FogNoLB.fog[20].dispatcher droppedJobsSLA 0
scalar FogNoLB.fog[20].dispatcher jobs_class_1 3182
scalar FogNoLB.fog[20].dispatcher localJobs_class_1 3182
scalar FogNoLB.fog[20].server[0] rho 0.49173682928085
scalar FogNoLB.fog[20].server[0] congestionRatio 0
scalar FogNoLB.fog[20].server[0] totalJobs 3182
scalar FogNoLB.fog[20].server[0] droppedJobsQueue 2
scalar FogNoLB.fog[20].server[0] droppedJobsTimout 0
scalar FogNoLB.fog[20].server[0] droppedJobsSLA 0
scalar FogNoLB.fog[20].server[0] droppedJobsTotal 2
scalar FogNoLB.fog[21].dispatcher localJobs 3320
scalar FogNoLB.fog[21].dispatcher remoteJobs 0
scalar FogNoLB.fog[21].dispatcher probeQueries 0
scalar FogNoLB.fog[21].dispatcher probeAnswers 0
scalar FogNoLB.fog[21].dispatcher droppedJobsSLA 0
scalar FogNoLB.fog[21].dispatcher jobs_class_1 3320
scalar FogNoLB.fog[21].dispatcher localJobs_class_1 3320
scalar FogNoLB.fog[21].server[0] rho 0.51284086704254
scalar FogNoLB.fog[21].server[0] congestionRatio 0
scalar FogNoLB.fog[21].server[0] totalJobs 3320
scalar FogNoLB.fog[21].server[0] droppedJobsQueue 3
scalar FogNoLB.fog[21].server[0] droppedJobsTimout 0
scalar FogNoLB.fog[21].server[0] droppedJobsSLA 0
scalar FogNoLB.fog[21].server[0] droppedJobsTotal 3
scalar FogNoLB.fog[22].dispatcher localJobs 3215
scalar FogNoLB.fog[22].dispatcher remoteJobs 0
scalar FogNoLB.fog[22].dispatcher probeQueries 0
scalar FogNoLB.fog[22].dispatcher probeAnswers 0
scalar FogNoLB.fog[22].dispatcher droppedJobsSLA 0
scalar FogNoLB.fog[22].dispatcher jobs_class_1 3215
scalar FogNoLB.fog[22].dispatcher localJobs_class_1 3215
scalar FogNoLB.fog[22].server[0] rho 0.49711361527443
scalar FogNoLB.fog[22].server[0] congestionRatio 0
scalar FogNoLB.fog[22].server[0] totalJobs 3215
scalar FogNoLB.fog[22].server[0] droppedJobsQueue 0
scalar FogNoLB.fog[22].server[0] droppedJobsTimout 0
scalar FogNoLB.fog[22].server[0] droppedJobsSLA 0
scalar FogNoLB.fog[22].server[0] droppedJobsTotal 0
scalar FogNoLB.fog[23].dispatcher localJobs 3164
scalar FogNoLB.fog[23].dispatcher remoteJobs 0
scalar FogNoLB.fog[23].dispatcher probeQueries 0
scalar FogNoLB.fog[23].dispatcher probeAnswers 0
scalar FogNoLB.fog[23].dispatcher droppedJobsSLA 0
scalar FogNoLB.fog[23].dispatcher jobs_class_1 3164
scalar FogNoLB.fog[23].dispatcher localJobs_class_1 3164
scalar FogNoLB.fog[23].server[0] rho 0.48874419927597
scalar FogNoLB.fog[23].server[0] congestionRatio 0
scalar FogNoLB.fog[23].server[0] totalJobs 3164
scalar FogNoLB.fog[23].server[0] droppedJobsQueue 3
scalar FogNoLB.fog[23].server[0] droppedJobsTimout 0
scalar FogNoLB.fog[23].server[0] droppedJobsSLA 0
scalar FogNoLB.fog[23].server[0] droppedJobsTotal 3
scalar FogNoLB.fog[24].dispatcher localJobs 3287
scalar FogNoLB.fog[24].dispatcher remoteJobs 0
scalar FogNoLB.fog[24].dispatcher probeQueries 0
scalar FogNoLB.fog[24].dispatcher probeAnswers 0
scalar FogNoLB.fog[24].dispatcher droppedJobsSLA 0
scalar FogNoLB.fog[24].dispatcher jobs_class_1 3287
scalar FogNoLB.fog[24].dispatcher localJobs_class_1 3287
scalar FogNoLB.fog[24].server[0] rho 0.50790596008301
scalar FogNoLB.fog[24].server[0] congestionRatio 0
scalar FogNoLB.fog[24].server[0] totalJobs 3287
scalar FogNoLB.fog[24].server[0] droppedJobsQueue 3
scalar FogNoLB.fog[24].server[0] droppedJobsTimout 0
scalar FogNoLB.fog[24].server[0] droppedJobsSLA 0
scalar FogNoLB.fog[24].server[0] droppedJobsTotal 3
scalar FogNoLB.fog[25].dispatcher localJobs 3358
scalar FogNoLB.fog[25].dispatcher remoteJobs 0
scalar FogNoLB.fog[25].dispatcher probeQueries 0
scalar FogNoLB.fog[25].dispatcher probeAnswers 0
scalar FogNoLB.fog[25].dispatcher droppedJobsSLA 0
scalar FogNoLB.fog[25].dispatcher jobs_class_1 3358
scalar FogNoLB.fog[25].dispatcher localJobs_class_1 3358
scalar FogNoLB.fog[25].server[0] rho 0.51871490478516
scalar FogNoLB.fog[25].server[0] congestionRatio 0
scalar FogNoLB.fog[25].server[0] totalJobs 3358
scalar FogNoLB.fog[25].server[0] droppedJobsQueue 3
scalar FogNoLB.fog[25].server[0] droppedJobsTimout 0
scalar FogNoLB.fog[25].server[0] droppedJobsSLA 0
scalar FogNoLB.fog[25].server[0] droppedJobsTotal 3
scalar FogNoLB.fog[26].dispatcher localJobs 3360
scalar FogNoLB.fog[26].dispatcher remoteJobs 0
scalar FogNoLB.fog[26].dispatcher probeQueries 0
scalar FogNoLB.fog[26].dispatcher probeAnswers 0
scalar FogNoLB.fog[26].dispatcher droppedJobsSLA 0
scalar FogNoLB.fog[26].dispatcher jobs_class_1 3360
scalar FogNoLB.fog[26].dispatcher localJobs_class_1 3360
scalar FogNoLB.fog[26].server[0] rho 0.51904714107513
scalar FogNoLB.fog[26].server[0] congestionRatio 0
scalar FogNoLB.fog[26].server[0] totalJobs 3360
scalar FogNoLB.fog[26].server[0] droppedJobsQueue 4
scalar FogNoLB.fog[26].server[0] droppedJobsTimout 0
scalar FogNoLB.fog[26].server[0] droppedJobsSLA 0
scalar FogNoLB.fog[26].server[0] droppedJobsTotal 4
scalar FogNoLB.fog[27].dispatcher localJobs 3209
scalar FogNoLB.fog[27].dispatcher remoteJobs 0
scalar FogNoLB.fog[27].dispatcher probeQueries 0
scalar FogNoLB.fog[27].dispatcher probeAnswers 0
scalar FogNoLB.fog[27].dispatcher droppedJobsSLA 0
scalar FogNoLB.fog[27].dispatcher jobs_class_1 3209
scalar FogNoLB.fog[27].dispatcher localJobs_class_1 3209
scalar FogNoLB.fog[27].server[0] rho 0.49620205163956
scalar FogNoLB.fog[27].server[0] congestionRatio 0
scalar FogNoLB.fog[27].server[0] totalJobs 3209
scalar FogNoLB.fog[27].server[0] droppedJobsQueue 0
scalar FogNoLB.fog[27].server[0] droppedJobsTimout 0
scalar FogNoLB.fog[27].server[0] droppedJobsSLA 0
scalar FogNoLB.fog[27].server[0] droppedJobsTotal 0
scalar FogNoLB.fog[28].dispatcher localJobs 3194
scalar FogNoLB.fog[28].dispatcher remoteJobs 0
scalar FogNoLB.fog[28].dispatcher probeQueries 0
scalar FogNoLB.fog[28].dispatcher probeAnswers 0
scalar FogNoLB.fog[28].dispatcher droppedJobsSLA 0
scalar FogNoLB.fog[28].dispatcher jobs_class_1 3194
scalar FogNoLB.fog[28].dispatcher localJobs_class_1 3194
scalar FogNoLB.fog[28].server[0] rho 0.49347025156021
scalar FogNoLB.fog[28].server[0] congestionRatio 0
scalar FogNoLB.fog[28].server[0] totalJobs 3194
scalar FogNoLB.fog[28].server[0] droppedJobsQueue 2
scalar FogNoLB.fog[28].server[0] droppedJobsTimout 0
scalar FogNoLB.fog[28].server[0] droppedJobsSLA 0
scalar FogNoLB.fog[28].server[0] droppedJobsTotal 2
scalar FogNoLB.fog[29].dispatcher localJobs 3265
scalar FogNoLB.fog[29].dispatcher remoteJobs 0
scalar FogNoLB.fog[29].dispatcher probeQueries 0
scalar FogNoLB.fog[29].dispatcher probeAnswers 0
scalar FogNoLB.fog[29].dispatcher droppedJobsSLA 0
scalar FogNoLB.fog[29].dispatcher jobs_class_1 3265
scalar FogNoLB.fog[29].dispatcher localJobs_class_1 3265
scalar FogNoLB.fog[29].server[0] rho 0.50410413742065
scalar FogNoLB.fog[29].server[0] congestionRatio 0
scalar FogNoLB.fog[29].server[0] totalJobs 3265
scalar FogNoLB.fog[29].server[0] droppedJobsQueue 5
scalar FogNoLB.fog[29].server[0] droppedJobsTimout 0
scalar FogNoLB.fog[29].server[0] droppedJobsSLA 0
scalar FogNoLB.fog[29].server[0] droppedJobsTotal 5
scalar FogNoLB.fog[30].dispatcher localJobs 3185
scalar FogNoLB.fog[30].dispatcher remoteJobs 0
scalar FogNoLB.fog[30].dispatcher probeQueries 0
scalar FogNoLB.fog[30].dispatcher probeAnswers 0
scalar FogNoLB.fog[30].dispatcher droppedJobsSLA 0
scalar FogNoLB.fog[30].dispatcher jobs_class_1 3185
scalar FogNoLB.fog[30].dispatcher localJobs_class_1 3185
scalar FogNoLB.fog[30].server[0] rho 0.49241179227829
scalar FogNoLB.fog[30].server[0] congestionRatio 0
scalar FogNoLB.fog[30].server[0] totalJobs 3185
scalar FogNoLB.fog[30].server[0] droppedJobsQueue 1
scalar FogNoLB.fog[30].server[0] droppedJobsTimout 0
scalar FogNoLB.fog[30].server[0] droppedJobsSLA 0
scalar FogNoLB.fog[30].server[0] droppedJobsTotal 1
scalar FogNoLB.fog[31].dispatcher localJobs 3317
scalar FogNoLB.fog[31].dispatcher remoteJobs 0
scalar FogNoLB.fog[31].dispatcher probeQueries 0
scalar FogNoLB.fog[31].dispatcher probeAnswers 0
scalar FogNoLB.fog[31].dispatcher droppedJobsSLA 0
scalar FogNoLB.fog[31].dispatcher jobs_class_1 3317
scalar FogNoLB.fog[31].dispatcher localJobs_class_1 3317
scalar FogNoLB.fog[31].server[0] rho 0.51192677021027
scalar FogNoLB.fog[31].server[0] congestionRatio 0
scalar FogNoLB.fog[31].server[0] totalJobs 3317
scalar FogNoLB.fog[31].server[0] droppedJobsQueue 3
scalar FogNoLB.fog[31].server[0] droppedJobsTimout 0
scalar FogNoLB.fog[31].server[0] droppedJobsSLA 0
scalar FogNoLB.fog[31].server[0] droppedJobsTotal 3
scalar FogNoLB.fog[32].dispatcher localJobs 3164
scalar FogNoLB.fog[32].dispatcher remoteJobs 0
scalar FogNoLB.fog[32].dispatcher probeQueries 0
scalar FogNoLB.fog[32].dispatcher probeAnswers 0
scalar FogNoLB.fog[32].dispatcher droppedJobsSLA 0
scalar FogNoLB.fog[32].dispatcher jobs_class_1 3164
scalar FogNoLB.fog[32].dispatcher localJobs_class_1 3164
scalar FogNoLB.fog[32].server[0] rho 0.48901131749153
scalar FogNoLB.fog[32].server[0] congestionRatio 0
scalar FogNoLB.fog[32].server[0] totalJobs 3164
scalar FogNoLB.fog[32].server[0] droppedJobsQueue 0
scalar FogNoLB.fog[32].server[0] droppedJobsTimout 0
scalar FogNoLB.fog[32].server[0] droppedJobsSLA 0
scalar FogNoLB.fog[32].server[0] droppedJobsTotal 0
scalar FogNoLB.fog[33].dispatcher localJobs 3340
scalar FogNoLB.fog[33].dispatcher remoteJobs 0
scalar FogNoLB.fog[33].dispatcher probeQueries 0
scalar FogNoLB.fog[33].dispatcher probeAnswers 0
scalar FogNoLB.fog[33].dispatcher droppedJobsSLA 0
scalar FogNoLB.fog[33].dispatcher jobs_class_1 3340
scalar FogNoLB.fog[33].dispatcher localJobs_class_1 3340
scalar FogNoLB.fog[33].server[0] rho 0.51658564805984
scalar FogNoLB.fog[33].server[0] congestionRatio 0
scalar FogNoLB.fog[33].server[0] totalJobs 3340
scalar FogNoLB.fog[33].server[0] droppedJobsQueue 0
scalar FogNoLB.fog[33].server[0] droppedJobsTimout 0
scalar FogNoLB.fog[33].server[0] droppedJobsSLA 0
scalar FogNoLB.fog[33].server[0] droppedJobsTotal 0
scalar FogNoLB.fog[34].dispatcher localJobs 3131
scalar FogNoLB.fog[34].dispatcher remoteJobs 0
scalar FogNoLB.fog[34].dispatcher probeQueries 0
scalar FogNoLB.fog[34].dispatcher probeAnswers 0
scalar FogNoLB.fog[34].dispatcher droppedJobsSLA 0
scalar FogNoLB.fog[34].dispatcher jobs_class_1 3131
scalar FogNoLB.fog[34].dispatcher localJobs_class_1 3131
scalar FogNoLB.fog[34].server[0] rho 0.48391112685204
scalar FogNoLB.fog[34].server[0] congestionRatio 0
scalar FogNoLB.fog[34].server[0] totalJobs 3131
scalar FogNoLB.fog[34].server[0] droppedJobsQueue 1
scalar FogNoLB.fog[34].server[0] droppedJobsTimout 0
scalar FogNoLB.fog[34].server[0] droppedJobsSLA 0
scalar FogNoLB.fog[34].server[0] droppedJobsTotal 1
scalar FogNoLB.fog[35].dispatcher localJobs 3281
scalar FogNoLB.fog[35].dispatcher remoteJobs 0
scalar FogNoLB.fog[35].dispatcher probeQueries 0
scalar FogNoLB.fog[35].dispatcher probeAnswers 0
scalar FogNoLB.fog[35].dispatcher droppedJobsSLA 0
scalar FogNoLB.fog[35].dispatcher jobs_class_1 3281
scalar FogNoLB.fog[35].dispatcher localJobs_class_1 3281
scalar FogNoLB.fog[35].server[0] rho 0.50719356536865
scalar FogNoLB.fog[35].server[0] congestionRatio 0
scalar FogNoLB.fog[35].server[0] totalJobs 3281
scalar FogNoLB.fog[35].server[0] droppedJobsQueue 3
scalar FogNoLB.fog[35].server[0] droppedJobsTimout 0
scalar FogNoLB.fog[35].server[0] droppedJobsSLA 0
scalar FogNoLB.fog[35].server[0] droppedJobsTotal 3
scalar FogNoLB.fog[36].dispatcher localJobs 3215
scalar FogNoLB.fog[36].dispatcher remoteJobs 0
scalar FogNoLB.fog[36].dispatcher probeQueries 0
scalar FogNoLB.fog[36].dispatcher probeAnswers 0
scalar FogNoLB.fog[36].dispatcher droppedJobsSLA 0
scalar FogNoLB.fog[36].dispatcher jobs_class_1 3215
scalar FogNoLB.fog[36].dispatcher localJobs_class_1 3215
scalar FogNoLB.fog[36].server[0] rho 0.49690219759941
scalar FogNoLB.fog[36].server[0] congestionRatio 0
scalar FogNoLB.fog[36].server[0] totalJobs 3215
scalar FogNoLB.fog[36].server[0] droppedJobsQueue 0
scalar FogNoLB.fog[36].server[0] droppedJobsTimout 0
scalar FogNoLB.fog[36].server[0] droppedJobsSLA 0
scalar FogNoLB.fog[36].server[0] droppedJobsTotal 0
scalar FogNoLB.fog[37].dispatcher localJobs 3301
scalar FogNoLB.fog[37].dispatcher remoteJobs 0
scalar FogNoLB.fog[37].dispatcher probeQueries 0
scalar FogNoLB.fog[37].dispatcher probeAnswers 0
scalar FogNoLB.fog[37].dispatcher droppedJobsSLA 0
scalar FogNoLB.fog[37].dispatcher jobs_class_1 3301
scalar FogNoLB.fog[37].dispatcher localJobs_class_1 3301
scalar FogNoLB.fog[37].server[0] rho 0.51022416353226
scalar FogNoLB.fog[37].server[0] congestionRatio 0
scalar FogNoLB.fog[37].server[0] totalJobs 3301
scalar FogNoLB.fog[37].server[0] droppedJobsQueue 1
scalar FogNoLB.fog[37].server[0] droppedJobsTimout 0
scalar FogNoLB.fog[37].server[0] droppedJobsSLA 0
scalar FogNoLB.fog[37].server[0] droppedJobsTotal 1
scalar FogNoLB.fog[38].dispatcher localJobs 3252
scalar FogNoLB.fog[38].dispatcher remoteJobs 0
scalar FogNoLB.fog[38].dispatcher probeQueries 0
scalar FogNoLB.fog[38].dispatcher probeAnswers 0
scalar FogNoLB.fog[38].dispatcher droppedJobsSLA 0
scalar FogNoLB.fog[38].dispatcher jobs_class_1 3252
scalar FogNoLB.fog[38].dispatcher localJobs_class_1 3252
scalar FogNoLB.fog[38].server[0] rho 0.50282919406891
scalar FogNoLB.fog[38].server[0] congestionRatio 0
scalar FogNoLB.fog[38].server[0] totalJobs 3252
scalar FogNoLB.fog[38].server[0] droppedJobsQueue 0
scalar FogNoLB.fog[38].server[0] droppedJobsTimout 0
scalar FogNoLB.fog[38].server[0] droppedJobsSLA 0
scalar FogNoLB.fog[38].server[0] droppedJobsTotal 0
scalar FogNoLB.fog[39].dispatcher localJobs 3293
scalar FogNoLB.fog[39].dispatcher remoteJobs 0
scalar FogNoLB.fog[39].dispatcher probeQueries 0
scalar FogNoLB.fog[39].dispatcher probeAnswers 0
scalar FogNoLB.fog[39].dispatcher droppedJobsSLA 0
scalar FogNoLB.fog[39].dispatcher jobs_class_1 3293
scalar FogNoLB.fog[39].dispatcher localJobs_class_1 3293
scalar FogNoLB.fog[39].server[0] rho 0.50890284776688
scalar FogNoLB.fog[39].server[0] congestionRatio 0
scalar FogNoLB.fog[39].server[0] totalJobs 3293
scalar FogNoLB.fog[39].server[0] droppedJobsQueue 2
scalar FogNoLB.fog[39].server[0] droppedJobsTimout 0
scalar FogNoLB.fog[39].server[0] droppedJobsSLA 0
scalar FogNoLB.fog[39].server[0] droppedJobsTotal 2
scalar FogNoLB.fog[40].dispatcher localJobs 3218
scalar FogNoLB.fog[40].dispatcher remoteJobs 0
scalar FogNoLB.fog[40].dispatcher probeQueries 0
scalar FogNoLB.fog[40].dispatcher probeAnswers 0
scalar FogNoLB.fog[40].dispatcher droppedJobsSLA 0
scalar FogNoLB.fog[40].dispatcher jobs_class_1 3218
scalar FogNoLB.fog[40].dispatcher localJobs_class_1 3218
scalar FogNoLB.fog[40].server[0] rho 0.49750578403473
scalar FogNoLB.fog[40].server[0] congestionRatio 0
scalar FogNoLB.fog[40].server[0] totalJobs 3218
scalar FogNoLB.fog[40].server[0] droppedJobsQueue 2
scalar FogNoLB.fog[40].server[0] droppedJobsTimout 0
scalar FogNoLB.fog[40].server[0] droppedJobsSLA 0
scalar FogNoLB.fog[40].server[0] droppedJobsTotal 2
scalar FogNoLB.fog[41].dispatcher localJobs 3274
scalar FogNoLB.fog[41].dispatcher remoteJobs 0
scalar FogNoLB.fog[41].dispatcher probeQueries 0
scalar FogNoLB.fog[41].dispatcher probeAnswers 0
scalar FogNoLB.fog[41].dispatcher droppedJobsSLA 0
scalar FogNoLB.fog[41].dispatcher jobs_class_1 3274
scalar FogNoLB.fog[41].dispatcher localJobs_class_1 3274
scalar FogNoLB.fog[41].server[0] rho 0.50599187612534
scalar FogNoLB.fog[41].server[0] congestionRatio 0
scalar FogNoLB.fog[41].server[0] totalJobs 3274
scalar FogNoLB.fog[41].server[0] droppedJobsQueue 2
scalar FogNoLB.fog[41].server[0] droppedJobsTimout 0
scalar FogNoLB.fog[41].server[0] droppedJobsSLA 0
scalar FogNoLB.fog[41].server[0] droppedJobsTotal 2
scalar FogNoLB.fog[42].dispatcher localJobs 3202
scalar FogNoLB.fog[42].dispatcher remoteJobs 0
scalar FogNoLB.fog[42].dispatcher probeQueries 0
scalar FogNoLB.fog[42].dispatcher probeAnswers 0
scalar FogNoLB.fog[42].dispatcher droppedJobsSLA 0
scalar FogNoLB.fog[42].dispatcher jobs_class_1 3202
scalar FogNoLB.fog[42].dispatcher localJobs_class_1 3202
scalar FogNoLB.fog[42].server[0] rho 0.49460771679878
scalar FogNoLB.fog[42].server[0] congestionRatio 0
scalar FogNoLB.fog[42].server[0] totalJobs 3202
scalar FogNoLB.fog[42].server[0] droppedJobsQueue 2
scalar FogNoLB.fog[42].server[0] droppedJobsTimout 0
scalar FogNoLB.fog[42].server[0] droppedJobsSLA 0
scalar FogNoLB.fog[42].server[0] droppedJobsTotal 2
scalar FogNoLB.fog[43].dispatcher localJobs 3217
scalar FogNoLB.fog[43].dispatcher remoteJobs 0
scalar FogNoLB.fog[43].dispatcher probeQueries 0
scalar FogNoLB.fog[43].dispatcher probeAnswers 0
scalar FogNoLB.fog[43].dispatcher droppedJobsSLA 0
scalar FogNoLB.fog[43].dispatcher jobs_class_1 3217
scalar FogNoLB.fog[43].dispatcher localJobs_class_1 3217
scalar FogNoLB.fog[43].server[0] rho 0.49732175469398
scalar FogNoLB.fog[43].server[0] congestionRatio 0
scalar FogNoLB.fog[43].server[0] totalJobs 3217
scalar FogNoLB.fog[43].server[0] droppedJobsQueue 1
scalar FogNoLB.fog[43].server[0] droppedJobsTimout 0
scalar FogNoLB.fog[43].server[0] droppedJobsSLA 0
scalar FogNoLB.fog[43].server[0] droppedJobsTotal 1
scalar FogNoLB.fog[44].dispatcher localJobs 3238
scalar FogNoLB.fog[44].dispatcher remoteJobs 0
scalar FogNoLB.fog[44].dispatcher probeQueries 0
scalar FogNoLB.fog[44].dispatcher probeAnswers 0
scalar FogNoLB.fog[44].dispatcher droppedJobsSLA 0
scalar FogNoLB.fog[44].dispatcher jobs_class_1 3238
scalar FogNoLB.fog[44].dispatcher localJobs_class_1 3238
scalar FogNoLB.fog[44].server[0] rho 0.50057345628738
scalar FogNoLB.fog[44].server[0] congestionRatio 0
scalar FogNoLB.fog[44].server[0] totalJobs 3238
scalar FogNoLB.fog[44].server[0] droppedJobsQueue 0
scalar FogNoLB.fog[44].server[0] droppedJobsTimout 0
scalar FogNoLB.fog[44].server[0] droppedJobsSLA 0
scalar FogNoLB.fog[44].server[0] droppedJobsTotal 0
scalar FogNoLB.fog[45].dispatcher localJobs 3316
scalar FogNoLB.fog[45].dispatcher remoteJobs 0
scalar FogNoLB.fog[45].dispatcher probeQueries 0
scalar FogNoLB.fog[45].dispatcher probeAnswers 0
scalar FogNoLB.fog[45].dispatcher droppedJobsSLA 0
scalar FogNoLB.fog[45].dispatcher jobs_class_1 3316
scalar FogNoLB.fog[45].dispatcher localJobs_class_1 3316
scalar FogNoLB.fog[45].server[0] rho 0.51229470968246
scalar FogNoLB.fog[45].server[0] congestionRatio 0
scalar FogNoLB.fog[45].server[0] totalJobs 3316
scalar FogNoLB.fog[45].server[0] droppedJobsQueue 1
scalar FogNoLB.fog[45].server[0] droppedJobsTimout 0
scalar FogNoLB.fog[45].server[0] droppedJobsSLA 0
scalar FogNoLB.fog[45].server[0] droppedJobsTotal 1
scalar FogNoLB.fog[46].dispatcher localJobs 3245
scalar FogNoLB.fog[46].dispatcher remoteJobs 0
scalar FogNoLB.fog[46].dispatcher probeQueries 0
scalar FogNoLB.fog[46].dispatcher probeAnswers 0
scalar FogNoLB.fog[46].dispatcher droppedJobsSLA 0
scalar FogNoLB.fog[46].dispatcher jobs_class_1 3245
scalar FogNoLB.fog[46].dispatcher localJobs_class_1 3245
scalar FogNoLB.fog[46].server[0] rho 0.50118041038513
scalar FogNoLB.fog[46].server[0] congestionRatio 0
scalar FogNoLB.fog[46].server[0] totalJobs 3245
scalar FogNoLB.fog[46].server[0] droppedJobsQueue 4
scalar FogNoLB.fog[46].server[0] droppedJobsTimout 0
scalar FogNoLB.fog[46].server[0] droppedJobsSLA 0
scalar FogNoLB.fog[46].server[0] droppedJobsTotal 4
scalar FogNoLB.fog[47].dispatcher localJobs 3368
scalar FogNoLB.fog[47].dispatcher remoteJobs 0
scalar FogNoLB.fog[47].dispatcher probeQueries 0
scalar FogNoLB.fog[47].dispatcher probeAnswers 0
scalar FogNoLB.fog[47].dispatcher droppedJobsSLA 0
scalar FogNoLB.fog[47].dispatcher jobs_class_1 3368
scalar FogNoLB.fog[47].dispatcher localJobs_class_1 3368
scalar FogNoLB.fog[47].server[0] rho 0.52061635255814
scalar FogNoLB.fog[47].server[0] congestionRatio 0
scalar FogNoLB.fog[47].server[0] totalJobs 3368
scalar FogNoLB.fog[47].server[0] droppedJobsQueue 5
scalar FogNoLB.fog[47].server[0] droppedJobsTimout 0
scalar FogNoLB.fog[47].server[0] droppedJobsSLA 0
scalar FogNoLB.fog[47].server[0] droppedJobsTotal 5
scalar FogNoLB.fog[48].dispatcher localJobs 3292
scalar FogNoLB.fog[48].dispatcher remoteJobs 0
scalar FogNoLB.fog[48].dispatcher probeQueries 0
scalar FogNoLB.fog[48].dispatcher probeAnswers 0
scalar FogNoLB.fog[48].dispatcher droppedJobsSLA 0
scalar FogNoLB.fog[48].dispatcher jobs_class_1 3292
scalar FogNoLB.fog[48].dispatcher localJobs_class_1 3292
scalar FogNoLB.fog[48].server[0] rho 0.50864636898041
scalar FogNoLB.fog[48].server[0] congestionRatio 0
scalar FogNoLB.fog[48].server[0] totalJobs 3292
scalar FogNoLB.fog[48].server[0] droppedJobsQueue 1
scalar FogNoLB.fog[48].server[0] droppedJobsTimout 0
scalar FogNoLB.fog[48].server[0] droppedJobsSLA 0
scalar FogNoLB.fog[48].server[0] droppedJobsTotal 1
scalar FogNoLB.fog[49].dispatcher localJobs 3167
scalar FogNoLB.fog[49].dispatcher remoteJobs 0
scalar FogNoLB.fog[49].dispatcher probeQueries 0
scalar FogNoLB.fog[49].dispatcher probeAnswers 0
scalar FogNoLB.fog[49].dispatcher droppedJobsSLA 0
scalar FogNoLB.fog[49].dispatcher jobs_class_1 3167
scalar FogNoLB.fog[49].dispatcher localJobs_class_1 3167
scalar FogNoLB.fog[49].server[0] rho 0.48918870091438
scalar FogNoLB.fog[49].server[0] congestionRatio 0
scalar FogNoLB.fog[49].server[0] totalJobs 3167
scalar FogNoLB.fog[49].server[0] droppedJobsQueue 1
scalar FogNoLB.fog[49].server[0] droppedJobsTimout 0
scalar FogNoLB.fog[49].server[0] droppedJobsSLA 0
scalar FogNoLB.fog[49].server[0] droppedJobsTotal 1
scalar FogNoLB.fog[50].dispatcher localJobs 3286
scalar FogNoLB.fog[50].dispatcher remoteJobs 0
scalar FogNoLB.fog[50].dispatcher probeQueries 0
scalar FogNoLB.fog[50].dispatcher probeAnswers 0
scalar FogNoLB.fog[50].dispatcher droppedJobsSLA 0
scalar FogNoLB.fog[50].dispatcher jobs_class_1 3286
scalar FogNoLB.fog[50].dispatcher localJobs_class_1 3286
scalar FogNoLB.fog[50].server[0] rho 0.50798267126083
scalar FogNoLB.fog[50].server[0] congestionRatio 0
scalar FogNoLB.fog[50].server[0] totalJobs 3286
scalar FogNoLB.fog[50].server[0] droppedJobsQueue 1
scalar FogNoLB.fog[50].server[0] droppedJobsTimout 0
scalar FogNoLB.fog[50].server[0] droppedJobsSLA 0
scalar FogNoLB.fog[50].server[0] droppedJobsTotal 1
scalar FogNoLB.fog[51].dispatcher localJobs 3284
scalar FogNoLB.fog[51].dispatcher remoteJobs 0
scalar FogNoLB.fog[51].dispatcher probeQueries 0
scalar FogNoLB.fog[51].dispatcher probeAnswers 0
scalar FogNoLB.fog[51].dispatcher droppedJobsSLA 0
scalar FogNoLB.fog[51].dispatcher jobs_class_1 3284
scalar FogNoLB.fog[51].dispatcher localJobs_class_1 3284
scalar FogNoLB.fog[51].server[0] rho 0.50748151540756
scalar FogNoLB.fog[51].server[0] congestionRatio 0
scalar FogNoLB.fog[51].server[0] totalJobs 3284
scalar FogNoLB.fog[51].server[0] droppedJobsQueue 1
scalar FogNoLB.fog[51].server[0] droppedJobsTimout 0
scalar FogNoLB.fog[51].server[0] droppedJobsSLA 0
scalar FogNoLB.fog[51].server[0] droppedJobsTotal 1
scalar FogNoLB.fog[52].dispatcher localJobs 3282
scalar FogNoLB.fog[52].dispatcher remoteJobs 0
scalar FogNoLB.fog[52].dispatcher probeQueries 0
scalar FogNoLB.fog[52].dispatcher probeAnswers 0
scalar FogNoLB.fog[52].dispatcher droppedJobsSLA 0
scalar FogNoLB.fog[52].dispatcher jobs_class_1 3282
scalar FogNoLB.fog[52].dispatcher localJobs_class_1 3282
scalar FogNoLB.fog[52].server[0] rho 0.5071769952774
scalar FogNoLB.fog[52].server[0] congestionRatio 0
scalar FogNoLB.fog[52].server[0] totalJobs 3282
scalar FogNoLB.fog[52].server[0] droppedJobsQueue 1
scalar FogNoLB.fog[52].server[0] droppedJobsTimout 0
scalar FogNoLB.fog[52].server[0] droppedJobsSLA 0
scalar FogNoLB.fog[52].server[0] droppedJobsTotal 1
scalar FogNoLB.fog[53].dispatcher localJobs 3385
scalar FogNoLB.fog[53].dispatcher remoteJobs 0
scalar FogNoLB.fog[53].dispatcher probeQueries 0
scalar FogNoLB.fog[53].dispatcher probeAnswers 0
scalar FogNoLB.fog[53].dispatcher droppedJobsSLA 0
scalar FogNoLB.fog[53].dispatcher jobs_class_1 3385
scalar FogNoLB.fog[53].dispatcher localJobs_class_1 3385
scalar FogNoLB.fog[53].server[0] rho 0.52281677722931
scalar FogNoLB.fog[53].server[0] congestionRatio 0
scalar FogNoLB.fog[53].server[0] totalJobs 3385
scalar FogNoLB.fog[53].server[0] droppedJobsQueue 5
scalar FogNoLB.fog[53].server[0] droppedJobsTimout 0
scalar FogNoLB.fog[53].server[0] droppedJobsSLA 0
scalar FogNoLB.fog[53].server[0] droppedJobsTotal 5
scalar FogNoLB.fog[54].dispatcher localJobs 3249
scalar FogNoLB.fog[54].dispatcher remoteJobs 0
scalar FogNoLB.fog[54].dispatcher probeQueries 0
scalar FogNoLB.fog[54].dispatcher probeAnswers 0
scalar FogNoLB.fog[54].dispatcher droppedJobsSLA 0
scalar FogNoLB.fog[54].dispatcher jobs_class_1 3249
scalar FogNoLB.fog[54].dispatcher localJobs_class_1 3249
scalar FogNoLB.fog[54].server[0] rho 0.50217097997665
scalar FogNoLB.fog[54].server[0] congestionRatio 0
scalar FogNoLB.fog[54].server[0] totalJobs 3249
scalar FogNoLB.fog[54].server[0] droppedJobsQueue 0
scalar FogNoLB.fog[54].server[0] droppedJobsTimout 0
scalar FogNoLB.fog[54].server[0] droppedJobsSLA 0
scalar FogNoLB.fog[54].server[0] droppedJobsTotal 0
scalar FogNoLB.fog[55].dispatcher localJobs 3163
scalar FogNoLB.fog[55].dispatcher remoteJobs 0
scalar FogNoLB.fog[55].dispatcher probeQueries 0
scalar FogNoLB.fog[55].dispatcher probeAnswers 0
scalar FogNoLB.fog[55].dispatcher droppedJobsSLA 0
scalar FogNoLB.fog[55].dispatcher jobs_class_1 3163
scalar FogNoLB.fog[55].dispatcher localJobs_class_1 3163
scalar FogNoLB.fog[55].server[0] rho 0.48859024047852
scalar FogNoLB.fog[55].server[0] congestionRatio 0
scalar FogNoLB.fog[55].server[0] totalJobs 3163
scalar FogNoLB.fog[55].server[0] droppedJobsQueue 3
scalar FogNoLB.fog[55].server[0] droppedJobsTimout 0
scalar FogNoLB.fog[55].server[0] droppedJobsSLA 0
scalar FogNoLB.fog[55].server[0] droppedJobsTotal 3
scalar FogNoLB.fog[56].dispatcher localJobs 3206
scalar FogNoLB.fog[56].dispatcher remoteJobs 0
scalar FogNoLB.fog[56].dispatcher probeQueries 0
scalar FogNoLB.fog[56].dispatcher probeAnswers 0
scalar FogNoLB.fog[56].dispatcher droppedJobsSLA 0
scalar FogNoLB.fog[56].dispatcher jobs_class_1 3206
scalar FogNoLB.fog[56].dispatcher localJobs_class_1 3206
scalar FogNoLB.fog[56].server[0] rho 0.49551862478256
scalar FogNoLB.fog[56].server[0] congestionRatio 0
scalar FogNoLB.fog[56].server[0] totalJobs 3206
scalar FogNoLB.fog[56].server[0] droppedJobsQueue 1
scalar FogNoLB.fog[56].server[0] droppedJobsTimout 0
scalar FogNoLB.fog[56].server[0] droppedJobsSLA 0
scalar FogNoLB.fog[56].server[0] droppedJobsTotal 1
scalar FogNoLB.fog[57].dispatcher localJobs 3254
scalar FogNoLB.fog[57].dispatcher remoteJobs 0
scalar FogNoLB.fog[57].dispatcher probeQueries 0
scalar FogNoLB.fog[57].dispatcher probeAnswers 0
scalar FogNoLB.fog[57].dispatcher droppedJobsSLA 0
scalar FogNoLB.fog[57].dispatcher jobs_class_1 3254
scalar FogNoLB.fog[57].dispatcher localJobs_class_1 3254
scalar FogNoLB.fog[57].server[0] rho 0.50231754779816
scalar FogNoLB.fog[57].server[0] congestionRatio 0
scalar FogNoLB.fog[57].server[0] totalJobs 3254
scalar FogNoLB.fog[57].server[0] droppedJobsQueue 5
scalar FogNoLB.fog[57].server[0] droppedJobsTimout 0
scalar FogNoLB.fog[57].server[0] droppedJobsSLA 0
scalar FogNoLB.fog[57].server[0] droppedJobsTotal 5
scalar FogNoLB.fog[58].dispatcher localJobs 3324
scalar FogNoLB.fog[58].dispatcher remoteJobs 0
scalar FogNoLB.fog[58].dispatcher probeQueries 0
scalar FogNoLB.fog[58].dispatcher probeAnswers 0
scalar FogNoLB.fog[58].dispatcher droppedJobsSLA 0
scalar FogNoLB.fog[58].dispatcher jobs_class_1 3324
scalar FogNoLB.fog[58].dispatcher localJobs_class_1 3324
scalar FogNoLB.fog[58].server[0] rho 0.51375848054886
scalar FogNoLB.fog[58].server[0] congestionRatio 0
scalar FogNoLB.fog[58].server[0] totalJobs 3324
scalar FogNoLB.fog[58].server[0] droppedJobsQueue 1
scalar FogNoLB.fog[58].server[0] droppedJobsTimout 0
scalar FogNoLB.fog[58].server[0] droppedJobsSLA 0
scalar FogNoLB.fog[58].server[0] droppedJobsTotal 1
scalar FogNoLB.fog[59].dispatcher localJobs 3217
scalar FogNoLB.fog[59].dispatcher remoteJobs 0
scalar FogNoLB.fog[59].dispatcher probeQueries 0
scalar FogNoLB.fog[59].dispatcher probeAnswers 0
scalar FogNoLB.fog[59].dispatcher droppedJobsSLA 0
scalar FogNoLB.fog[59].dispatcher jobs_class_1 3217
scalar FogNoLB.fog[59].dispatcher localJobs_class_1 3217
scalar FogNoLB.fog[59].server[0] rho 0.49713560938835
scalar FogNoLB.fog[59].server[0] congestionRatio 0
scalar FogNoLB.fog[59].server[0] totalJobs 3217
scalar FogNoLB.fog[59].server[0] droppedJobsQueue 0
scalar FogNoLB.fog[59].server[0] droppedJobsTimout 0
scalar FogNoLB.fog[59].server[0] droppedJobsSLA 0
scalar FogNoLB.fog[59].server[0] droppedJobsTotal 0
scalar FogNoLB.fog[60].dispatcher localJobs 3242
scalar FogNoLB.fog[60].dispatcher remoteJobs 0
scalar FogNoLB.fog[60].dispatcher probeQueries 0
scalar FogNoLB.fog[60].dispatcher probeAnswers 0
scalar FogNoLB.fog[60].dispatcher droppedJobsSLA 0
scalar FogNoLB.fog[60].dispatcher jobs_class_1 3242
scalar FogNoLB.fog[60].dispatcher localJobs_class_1 3242
scalar FogNoLB.fog[60].server[0] rho 0.50083261728287
scalar FogNoLB.fog[60].server[0] congestionRatio 0
scalar FogNoLB.fog[60].server[0] totalJobs 3242
scalar FogNoLB.fog[60].server[0] droppedJobsQueue 4
scalar FogNoLB.fog[60].server[0] droppedJobsTimout 0
scalar FogNoLB.fog[60].server[0] droppedJobsSLA 0
scalar FogNoLB.fog[60].server[0] droppedJobsTotal 4
scalar FogNoLB.fog[61].dispatcher localJobs 3177
scalar FogNoLB.fog[61].dispatcher remoteJobs 0
scalar FogNoLB.fog[61].dispatcher probeQueries 0
scalar FogNoLB.fog[61].dispatcher probeAnswers 0
scalar FogNoLB.fog[61].dispatcher droppedJobsSLA 0
scalar FogNoLB.fog[61].dispatcher jobs_class_1 3177
scalar FogNoLB.fog[61].dispatcher localJobs_class_1 3177
scalar FogNoLB.fog[61].server[0] rho 0.49057486653328
scalar FogNoLB.fog[61].server[0] congestionRatio 0
scalar FogNoLB.fog[61].server[0] totalJobs 3177
scalar FogNoLB.fog[61].server[0] droppedJobsQueue 6
scalar FogNoLB.fog[61].server[0] droppedJobsTimout 0
scalar FogNoLB.fog[61].server[0] droppedJobsSLA 0
scalar FogNoLB.fog[61].server[0] droppedJobsTotal 6
scalar FogNoLB.fog[62].dispatcher localJobs 3237
scalar FogNoLB.fog[62].dispatcher remoteJobs 0
scalar FogNoLB.fog[62].dispatcher probeQueries 0
scalar FogNoLB.fog[62].dispatcher probeAnswers 0
scalar FogNoLB.fog[62].dispatcher droppedJobsSLA 0
scalar FogNoLB.fog[62].dispatcher jobs_class_1 3237
scalar FogNoLB.fog[62].dispatcher localJobs_class_1 3237
scalar FogNoLB.fog[62].server[0] rho 0.49931800365448
scalar FogNoLB.fog[62].server[0] congestionRatio 0
scalar FogNoLB.fog[62].server[0] totalJobs 3237
scalar FogNoLB.fog[62].server[0] droppedJobsQueue 6
scalar FogNoLB.fog[62].server[0] droppedJobsTimout 0
scalar FogNoLB.fog[62].server[0] droppedJobsSLA 0
scalar FogNoLB.fog[62].server[0] droppedJobsTotal 6
scalar FogNoLB.fog[63].dispatcher localJobs 3212
scalar FogNoLB.fog[63].dispatcher remoteJobs 0
scalar FogNoLB.fog[63].dispatcher probeQueries 0
scalar FogNoLB.fog[63].dispatcher probeAnswers 0
scalar FogNoLB.fog[63].dispatcher droppedJobsSLA 0
scalar FogNoLB.fog[63].dispatcher jobs_class_1 3212
scalar FogNoLB.fog[63].dispatcher localJobs_class_1 3212
scalar FogNoLB.fog[63].server[0] rho 0.49627470970154
scalar FogNoLB.fog[63].server[0] congestionRatio 0
scalar FogNoLB.fog[63].server[0] totalJobs 3212
scalar FogNoLB.fog[63].server[0] droppedJobsQueue 1
scalar FogNoLB.fog[63].server[0] droppedJobsTimout 0
scalar FogNoLB.fog[63].server[0] droppedJobsSLA 0
scalar FogNoLB.fog[63].server[0] droppedJobsTotal 1
scalar FogNoLB.fog[64].dispatcher localJobs 3147
scalar FogNoLB.fog[64].dispatcher remoteJobs 0
scalar FogNoLB.fog[64].dispatcher probeQueries 0
scalar FogNoLB.fog[64].dispatcher probeAnswers 0
scalar FogNoLB.fog[64].dispatcher droppedJobsSLA 0
scalar FogNoLB.fog[64].dispatcher jobs_class_1 3147
scalar FogNoLB.fog[64].dispatcher localJobs_class_1 3147
scalar FogNoLB.fog[64].server[0] rho 0.48618561029434
scalar FogNoLB.fog[64].server[0] congestionRatio 0
scalar FogNoLB.fog[64].server[0] totalJobs 3147
scalar FogNoLB.fog[64].server[0] droppedJobsQueue 0
scalar FogNoLB.fog[64].server[0] droppedJobsTimout 0
scalar FogNoLB.fog[64].server[0] droppedJobsSLA 0
scalar FogNoLB.fog[64].server[0] droppedJobsTotal 0
scalar FogNoLB.fog[65].dispatcher localJobs 3227
scalar FogNoLB.fog[65].dispatcher remoteJobs 0
scalar FogNoLB.fog[65].dispatcher probeQueries 0
scalar FogNoLB.fog[65].dispatcher probeAnswers 0
scalar FogNoLB.fog[65].dispatcher droppedJobsSLA 0
scalar FogNoLB.fog[65].dispatcher jobs_class_1 3227
scalar FogNoLB.fog[65].dispatcher localJobs_class_1 3227
scalar FogNoLB.fog[65].server[0] rho 0.49807938933372
scalar FogNoLB.fog[65].server[0] congestionRatio 0
scalar FogNoLB.fog[65].server[0] totalJobs 3227
scalar FogNoLB.fog[65].server[0] droppedJobsQueue 3
scalar FogNoLB.fog[65].server[0] droppedJobsTimout 0
scalar FogNoLB.fog[65].server[0] droppedJobsSLA 0
scalar FogNoLB.fog[65].server[0] droppedJobsTotal 3
scalar FogNoLB.fog[66].dispatcher localJobs 3192
scalar FogNoLB.fog[66].dispatcher remoteJobs 0
scalar FogNoLB.fog[66].dispatcher probeQueries 0
scalar FogNoLB.fog[66].dispatcher probeAnswers 0
scalar FogNoLB.fog[66].dispatcher droppedJobsSLA 0
scalar FogNoLB.fog[66].dispatcher jobs_class_1 3192
scalar FogNoLB.fog[66].dispatcher localJobs_class_1 3192
scalar FogNoLB.fog[66].server[0] rho 0.49314951896667
scalar FogNoLB.fog[66].server[0] congestionRatio 0
scalar FogNoLB.fog[66].server[0] totalJobs 3192
scalar FogNoLB.fog[66].server[0] droppedJobsQueue 1
scalar FogNoLB.fog[66].server[0] droppedJobsTimout 0
scalar FogNoLB.fog[66].server[0] droppedJobsSLA 0
scalar FogNoLB.fog[66].server[0] droppedJobsTotal 1
scalar FogNoLB.fog[67].dispatcher localJobs 3315
scalar FogNoLB.fog[67].dispatcher remoteJobs 0
scalar FogNoLB.fog[67].dispatcher probeQueries 0
scalar FogNoLB.fog[67].dispatcher probeAnswers 0
scalar FogNoLB.fog[67].dispatcher droppedJobsSLA 0
scalar FogNoLB.fog[67].dispatcher jobs_class_1 3315
scalar FogNoLB.fog[67].dispatcher localJobs_class_1 3315
scalar FogNoLB.fog[67].server[0] rho 0.5121551156044
scalar FogNoLB.fog[67].server[0] congestionRatio 0
scalar FogNoLB.fog[67].server[0] totalJobs 3315
scalar FogNoLB.fog[67].server[0] droppedJobsQueue 2
scalar FogNoLB.fog[67].server[0] droppedJobsTimout 0
scalar FogNoLB.fog[67].server[0] droppedJobsSLA 0
scalar FogNoLB.fog[67].server[0] droppedJobsTotal 2
scalar FogNoLB.fog[68].dispatcher localJobs 3211
scalar FogNoLB.fog[68].dispatcher remoteJobs 0
scalar FogNoLB.fog[68].dispatcher probeQueries 0
scalar FogNoLB.fog[68].dispatcher probeAnswers 0
scalar FogNoLB.fog[68].dispatcher droppedJobsSLA 0
scalar FogNoLB.fog[68].dispatcher jobs_class_1 3211
scalar FogNoLB.fog[68].dispatcher localJobs_class_1 3211
scalar FogNoLB.fog[68].server[0] rho 0.49630773067474
scalar FogNoLB.fog[68].server[0] congestionRatio 0
scalar FogNoLB.fog[68].server[0] totalJobs 3211
scalar FogNoLB.fog[68].server[0] droppedJobsQueue 2
scalar FogNoLB.fog[68].server[0] droppedJobsTimout 0
scalar FogNoLB.fog[68].server[0] droppedJobsSLA 0
scalar FogNoLB.fog[68].server[0] droppedJobsTotal 2
scalar FogNoLB.fog[69].dispatcher localJobs 3200
scalar FogNoLB.fog[69].dispatcher remoteJobs 0
scalar FogNoLB.fog[69].dispatcher probeQueries 0
scalar FogNoLB.fog[69].dispatcher probeAnswers 0
scalar FogNoLB.fog[69].dispatcher droppedJobsSLA 0
scalar FogNoLB.fog[69].dispatcher jobs_class_1 3200
scalar FogNoLB.fog[69].dispatcher localJobs_class_1 3200
scalar FogNoLB.fog[69].server[0] rho 0.49432158470154
scalar FogNoLB.fog[69].server[0] congestionRatio 0
scalar FogNoLB.fog[69].server[0] totalJobs 3200
scalar FogNoLB.fog[69].server[0] droppedJobsQueue 3
scalar FogNoLB.fog[69].server[0] droppedJobsTimout 0
scalar FogNoLB.fog[69].server[0] droppedJobsSLA 0
scalar FogNoLB.fog[69].server[0] droppedJobsTotal 3
scalar FogNoLB.fog[70].dispatcher localJobs 3262
scalar FogNoLB.fog[70].dispatcher remoteJobs 0
scalar FogNoLB.fog[70].dispatcher probeQueries 0
scalar FogNoLB.fog[70].dispatcher probeAnswers 0
scalar FogNoLB.fog[70].dispatcher droppedJobsSLA 0
scalar FogNoLB.fog[70].dispatcher jobs_class_1 3262
scalar FogNoLB.fog[70].dispatcher localJobs_class_1 3262
scalar FogNoLB.fog[70].server[0] rho 0.50432640314102
scalar FogNoLB.fog[70].server[0] congestionRatio 0
scalar FogNoLB.fog[70].server[0] totalJobs 3262
scalar FogNoLB.fog[70].server[0] droppedJobsQueue 0
scalar FogNoLB.fog[70].server[0] droppedJobsTimout 0
scalar FogNoLB.fog[70].server[0] droppedJobsSLA 0
scalar FogNoLB.fog[70].server[0] droppedJobsTotal 0
scalar FogNoLB.fog[71].dispatcher localJobs 3282
scalar FogNoLB.fog[71].dispatcher remoteJobs 0
scalar FogNoLB.fog[71].dispatcher probeQueries 0
scalar FogNoLB.fog[71].dispatcher probeAnswers 0
scalar FogNoLB.fog[71].dispatcher droppedJobsSLA 0
scalar FogNoLB.fog[71].dispatcher jobs_class_1 3282
scalar FogNoLB.fog[71].dispatcher localJobs_class_1 3282
scalar FogNoLB.fog[71].server[0] rho 0.50606161355972
scalar FogNoLB.fog[71].server[0] congestionRatio 0
scalar FogNoLB.fog[71].server[0] totalJobs 3282
scalar FogNoLB.fog[71].server[0] droppedJobsQueue 2
scalar FogNoLB.fog[71].server[0] droppedJobsTimout 0
scalar FogNoLB.fog[71].server[0] droppedJobsSLA 0
scalar FogNoLB.fog[71].server[0] droppedJobsTotal 2
scalar FogNoLB.fog[72].dispatcher localJobs 3180
scalar FogNoLB.fog[72].dispatcher remoteJobs 0
scalar FogNoLB.fog[72].dispatcher probeQueries 0
scalar FogNoLB.fog[72].dispatcher probeAnswers 0
scalar FogNoLB.fog[72].dispatcher droppedJobsSLA 0
scalar FogNoLB.fog[72].dispatcher jobs_class_1 3180
scalar FogNoLB.fog[72].dispatcher localJobs_class_1 3180
scalar FogNoLB.fog[72].server[0] rho 0.49118164181709
scalar FogNoLB.fog[72].server[0] congestionRatio 0
scalar FogNoLB.fog[72].server[0] totalJobs 3180
scalar FogNoLB.fog[72].server[0] droppedJobsQueue 3
scalar FogNoLB.fog[72].server[0] droppedJobsTimout 0
scalar FogNoLB.fog[72].server[0] droppedJobsSLA 0
scalar FogNoLB.fog[72].server[0] droppedJobsTotal 3
scalar FogNoLB.fog[73].dispatcher localJobs 3149
scalar FogNoLB.fog[73].dispatcher remoteJobs 0
scalar FogNoLB.fog[73].dispatcher probeQueries 0
scalar FogNoLB.fog[73].dispatcher probeAnswers 0
scalar FogNoLB.fog[73].dispatcher droppedJobsSLA 0
scalar FogNoLB.fog[73].dispatcher jobs_class_1 3149
scalar FogNoLB.fog[73].dispatcher localJobs_class_1 3149
scalar FogNoLB.fog[73].server[0] rho 0.48647356033325
scalar FogNoLB.fog[73].server[0] congestionRatio 0
scalar FogNoLB.fog[73].server[0] totalJobs 3149
scalar FogNoLB.fog[73].server[0] droppedJobsQueue 2
scalar FogNoLB.fog[73].server[0] droppedJobsTimout 0
scalar FogNoLB.fog[73].server[0] droppedJobsSLA 0
scalar FogNoLB.fog[73].server[0] droppedJobsTotal 2
scalar FogNoLB.fog[74].dispatcher localJobs 3175
scalar FogNoLB.fog[74].dispatcher remoteJobs 0
scalar FogNoLB.fog[74].dispatcher probeQueries 0
scalar FogNoLB.fog[74].dispatcher probeAnswers 0
scalar FogNoLB.fog[74].dispatcher droppedJobsSLA 0
scalar FogNoLB.fog[74].dispatcher jobs_class_1 3175
scalar FogNoLB.fog[74].dispatcher localJobs_class_1 3175
scalar FogNoLB.fog[74].server[0] rho 0.49074250459671
scalar FogNoLB.fog[74].server[0] congestionRatio 0
scalar FogNoLB.fog[74].server[0] totalJobs 3175
scalar FogNoLB.fog[74].server[0] droppedJobsQueue 0
scalar FogNoLB.fog[74].server[0] droppedJobsTimout 0
scalar FogNoLB.fog[74].server[0] droppedJobsSLA 0
scalar FogNoLB.fog[74].server[0] droppedJobsTotal 0
scalar FogNoLB.fog[75].dispatcher localJobs 3287
scalar FogNoLB.fog[75].dispatcher remoteJobs 0
scalar FogNoLB.fog[75].dispatcher probeQueries 0
scalar FogNoLB.fog[75].dispatcher probeAnswers 0
scalar FogNoLB.fog[75].dispatcher droppedJobsSLA 0
scalar FogNoLB.fog[75].dispatcher jobs_class_1 3287
scalar FogNoLB.fog[75].dispatcher localJobs_class_1 3287
scalar FogNoLB.fog[75].server[0] rho 0.50784248113632
scalar FogNoLB.fog[75].server[0] congestionRatio 0
scalar FogNoLB.fog[75].server[0] totalJobs 3287
scalar FogNoLB.fog[75].server[0] droppedJobsQueue 2
scalar FogNoLB.fog[75].server[0] droppedJobsTimout 0
scalar FogNoLB.fog[75].server[0] droppedJobsSLA 0
scalar FogNoLB.fog[75].server[0] droppedJobsTotal 2
scalar FogNoLB.fog[76].dispatcher localJobs 3260
scalar FogNoLB.fog[76].dispatcher remoteJobs 0
scalar FogNoLB.fog[76].dispatcher probeQueries 0
scalar FogNoLB.fog[76].dispatcher probeAnswers 0
scalar FogNoLB.fog[76].dispatcher droppedJobsSLA 0
scalar FogNoLB.fog[76].dispatcher jobs_class_1 3260
scalar FogNoLB.fog[76].dispatcher localJobs_class_1 3260
scalar FogNoLB.fog[76].server[0] rho 0.50360864400864
scalar FogNoLB.fog[76].server[0] congestionRatio 0
scalar FogNoLB.fog[76].server[0] totalJobs 3260
scalar FogNoLB.fog[76].server[0] droppedJobsQueue 1
scalar FogNoLB.fog[76].server[0] droppedJobsTimout 0
scalar FogNoLB.fog[76].server[0] droppedJobsSLA 0
scalar FogNoLB.fog[76].server[0] droppedJobsTotal 1
scalar FogNoLB.fog[77].dispatcher localJobs 3183
scalar FogNoLB.fog[77].dispatcher remoteJobs 0
scalar FogNoLB.fog[77].dispatcher probeQueries 0
scalar FogNoLB.fog[77].dispatcher probeAnswers 0
scalar FogNoLB.fog[77].dispatcher droppedJobsSLA 0
scalar FogNoLB.fog[77].dispatcher jobs_class_1 3183
scalar FogNoLB.fog[77].dispatcher localJobs_class_1 3183
scalar FogNoLB.fog[77].server[0] rho 0.49199000000954
scalar FogNoLB.fog[77].server[0] congestionRatio 0
scalar FogNoLB.fog[77].server[0] totalJobs 3183
scalar FogNoLB.fog[77].server[0] droppedJobsQueue 0
scalar FogNoLB.fog[77].server[0] droppedJobsTimout 0
scalar FogNoLB.fog[77].server[0] droppedJobsSLA 0
scalar FogNoLB.fog[77].server[0] droppedJobsTotal 0
scalar FogNoLB.fog[78].dispatcher localJobs 3272
scalar FogNoLB.fog[78].dispatcher remoteJobs 0
scalar FogNoLB.fog[78].dispatcher probeQueries 0
scalar FogNoLB.fog[78].dispatcher probeAnswers 0
scalar FogNoLB.fog[78].dispatcher droppedJobsSLA 0
scalar FogNoLB.fog[78].dispatcher jobs_class_1 3272
scalar FogNoLB.fog[78].dispatcher localJobs_class_1 3272
scalar FogNoLB.fog[78].server[0] rho 0.5058006644249
scalar FogNoLB.fog[78].server[0] congestionRatio 0
scalar FogNoLB.fog[78].server[0] totalJobs 3272
scalar FogNoLB.fog[78].server[0] droppedJobsQueue 1
scalar FogNoLB.fog[78].server[0] droppedJobsTimout 0
scalar FogNoLB.fog[78].server[0] droppedJobsSLA 0
scalar FogNoLB.fog[78].server[0] droppedJobsTotal 1
scalar FogNoLB.fog[79].dispatcher localJobs 3238
scalar FogNoLB.fog[79].dispatcher remoteJobs 0
scalar FogNoLB.fog[79].dispatcher probeQueries 0
scalar FogNoLB.fog[79].dispatcher probeAnswers 0
scalar FogNoLB.fog[79].dispatcher droppedJobsSLA 0
scalar FogNoLB.fog[79].dispatcher jobs_class_1 3238
scalar FogNoLB.fog[79].dispatcher localJobs_class_1 3238
scalar FogNoLB.fog[79].server[0] rho 0.5002316236496
scalar FogNoLB.fog[79].server[0] congestionRatio 0
scalar FogNoLB.fog[79].server[0] totalJobs 3238
scalar FogNoLB.fog[79].server[0] droppedJobsQueue 3
scalar FogNoLB.fog[79].server[0] droppedJobsTimout 0
scalar FogNoLB.fog[79].server[0] droppedJobsSLA 0
scalar FogNoLB.fog[79].server[0] droppedJobsTotal 3
scalar FogNoLB.fog[80].dispatcher localJobs 3178
scalar FogNoLB.fog[80].dispatcher remoteJobs 0
scalar FogNoLB.fog[80].dispatcher probeQueries 0
scalar FogNoLB.fog[80].dispatcher probeAnswers 0
scalar FogNoLB.fog[80].dispatcher droppedJobsSLA 0
scalar FogNoLB.fog[80].dispatcher jobs_class_1 3178
scalar FogNoLB.fog[80].dispatcher localJobs_class_1 3178
scalar FogNoLB.fog[80].server[0] rho 0.49125510454178
scalar FogNoLB.fog[80].server[0] congestionRatio 0
scalar FogNoLB.fog[80].server[0] totalJobs 3178
scalar FogNoLB.fog[80].server[0] droppedJobsQueue 0
scalar FogNoLB.fog[80].server[0] droppedJobsTimout 0
scalar FogNoLB.fog[80].server[0] droppedJobsSLA 0
scalar FogNoLB.fog[80].server[0] droppedJobsTotal 0
scalar FogNoLB.fog[81].dispatcher localJobs 3303
scalar FogNoLB.fog[81].dispatcher remoteJobs 0
scalar FogNoLB.fog[81].dispatcher probeQueries 0
scalar FogNoLB.fog[81].dispatcher probeAnswers 0
scalar FogNoLB.fog[81].dispatcher droppedJobsSLA 0
scalar FogNoLB.fog[81].dispatcher jobs_class_1 3303
scalar FogNoLB.fog[81].dispatcher localJobs_class_1 3303
scalar FogNoLB.fog[81].server[0] rho 0.51037216186523
scalar FogNoLB.fog[81].server[0] congestionRatio 0
scalar FogNoLB.fog[81].server[0] totalJobs 3303
scalar FogNoLB.fog[81].server[0] droppedJobsQueue 2
scalar FogNoLB.fog[81].server[0] droppedJobsTimout 0
scalar FogNoLB.fog[81].server[0] droppedJobsSLA 0
scalar FogNoLB.fog[81].server[0] droppedJobsTotal 2
scalar FogNoLB.fog[82].dispatcher localJobs 3223
scalar FogNoLB.fog[82].dispatcher remoteJobs 0
scalar FogNoLB.fog[82].dispatcher probeQueries 0
scalar FogNoLB.fog[82].dispatcher probeAnswers 0
scalar FogNoLB.fog[82].dispatcher droppedJobsSLA 0
scalar FogNoLB.fog[82].dispatcher jobs_class_1 3223
scalar FogNoLB.fog[82].dispatcher localJobs_class_1 3223
scalar FogNoLB.fog[82].server[0] rho 0.49730813503265
scalar FogNoLB.fog[82].server[0] congestionRatio 0
scalar FogNoLB.fog[82].server[0] totalJobs 3223
scalar FogNoLB.fog[82].server[0] droppedJobsQueue 4
scalar FogNoLB.fog[82].server[0] droppedJobsTimout 0
scalar FogNoLB.fog[82].server[0] droppedJobsSLA 0
scalar FogNoLB.fog[82].server[0] droppedJobsTotal 4
scalar FogNoLB.fog[83].dispatcher localJobs 3202
scalar FogNoLB.fog[83].dispatcher remoteJobs 0
scalar FogNoLB.fog[83].dispatcher probeQueries 0
scalar FogNoLB.fog[83].dispatcher probeAnswers 0
scalar FogNoLB.fog[83].dispatcher droppedJobsSLA 0
scalar FogNoLB.fog[83].dispatcher jobs_class_1 3202
scalar FogNoLB.fog[83].dispatcher localJobs_class_1 3202
scalar FogNoLB.fog[83].server[0] rho 0.49461698532104
scalar FogNoLB.fog[83].server[0] congestionRatio 0
scalar FogNoLB.fog[83].server[0] totalJobs 3202
scalar FogNoLB.fog[83].server[0] droppedJobsQueue 4
scalar FogNoLB.fog[83].server[0] droppedJobsTimout 0
scalar FogNoLB.fog[83].server[0] droppedJobsSLA 0
scalar FogNoLB.fog[83].server[0] droppedJobsTotal 4
scalar FogNoLB.fog[84].dispatcher localJobs 3406
scalar FogNoLB.fog[84].dispatcher remoteJobs 0
scalar FogNoLB.fog[84].dispatcher probeQueries 0
scalar FogNoLB.fog[84].dispatcher probeAnswers 0
scalar FogNoLB.fog[84].dispatcher droppedJobsSLA 0
scalar FogNoLB.fog[84].dispatcher jobs_class_1 3406
scalar FogNoLB.fog[84].dispatcher localJobs_class_1 3406
scalar FogNoLB.fog[84].server[0] rho 0.52585059404373
scalar FogNoLB.fog[84].server[0] congestionRatio 0
scalar FogNoLB.fog[84].server[0] totalJobs 3406
scalar FogNoLB.fog[84].server[0] droppedJobsQueue 3
scalar FogNoLB.fog[84].server[0] droppedJobsTimout 0
scalar FogNoLB.fog[84].server[0] droppedJobsSLA 0
scalar FogNoLB.fog[84].server[0] droppedJobsTotal 3
scalar FogNoLB.fog[85].dispatcher localJobs 3213
scalar FogNoLB.fog[85].dispatcher remoteJobs 0
scalar FogNoLB.fog[85].dispatcher probeQueries 0
scalar FogNoLB.fog[85].dispatcher probeAnswers 0
scalar FogNoLB.fog[85].dispatcher droppedJobsSLA 0
scalar FogNoLB.fog[85].dispatcher jobs_class_1 3213
scalar FogNoLB.fog[85].dispatcher localJobs_class_1 3213
scalar FogNoLB.fog[85].server[0] rho 0.49649557471275
scalar FogNoLB.fog[85].server[0] congestionRatio 0
scalar FogNoLB.fog[85].server[0] totalJobs 3213
scalar FogNoLB.fog[85].server[0] droppedJobsQueue 2
scalar FogNoLB.fog[85].server[0] droppedJobsTimout 0
scalar FogNoLB.fog[85].server[0] droppedJobsSLA 0
scalar FogNoLB.fog[85].server[0] droppedJobsTotal 2
scalar FogNoLB.fog[86].dispatcher localJobs 3223
scalar FogNoLB.fog[86].dispatcher remoteJobs 0
scalar FogNoLB.fog[86].dispatcher probeQueries 0
scalar FogNoLB.fog[86].dispatcher probeAnswers 0
scalar FogNoLB.fog[86].dispatcher droppedJobsSLA 0
scalar FogNoLB.fog[86].dispatcher jobs_class_1 3223
scalar FogNoLB.fog[86].dispatcher localJobs_class_1 3223
scalar FogNoLB.fog[86].server[0] rho 0.49843662977219
scalar FogNoLB.fog[86].server[0] congestionRatio 0
scalar FogNoLB.fog[86].server[0] totalJobs 3223
scalar FogNoLB.fog[86].server[0] droppedJobsQueue 0
scalar FogNoLB.fog[86].server[0] droppedJobsTimout 0
scalar FogNoLB.fog[86].server[0] droppedJobsSLA 0
scalar FogNoLB.fog[86].server[0] droppedJobsTotal 0
scalar FogNoLB.fog[87].dispatcher localJobs 3237
scalar FogNoLB.fog[87].dispatcher remoteJobs 0
scalar FogNoLB.fog[87].dispatcher probeQueries 0
scalar FogNoLB.fog[87].dispatcher probeAnswers 0
scalar FogNoLB.fog[87].dispatcher droppedJobsSLA 0
scalar FogNoLB.fog[87].dispatcher jobs_class_1 3237
scalar FogNoLB.fog[87].dispatcher localJobs_class_1 3237
scalar FogNoLB.fog[87].server[0] rho 0.50001549720764
scalar FogNoLB.fog[87].server[0] congestionRatio 0
scalar FogNoLB.fog[87].server[0] totalJobs 3237
scalar FogNoLB.fog[87].server[0] droppedJobsQueue 4
scalar FogNoLB.fog[87].server[0] droppedJobsTimout 0
scalar FogNoLB.fog[87].server[0] droppedJobsSLA 0
scalar FogNoLB.fog[87].server[0] droppedJobsTotal 4
scalar FogNoLB.fog[88].dispatcher localJobs 3245
scalar FogNoLB.fog[88].dispatcher remoteJobs 0
scalar FogNoLB.fog[88].dispatcher probeQueries 0
scalar FogNoLB.fog[88].dispatcher probeAnswers 0
scalar FogNoLB.fog[88].dispatcher droppedJobsSLA 0
scalar FogNoLB.fog[88].dispatcher jobs_class_1 3245
scalar FogNoLB.fog[88].dispatcher localJobs_class_1 3245
scalar FogNoLB.fog[88].server[0] rho 0.50086426734924
scalar FogNoLB.fog[88].server[0] congestionRatio 0
scalar FogNoLB.fog[88].server[0] totalJobs 3245
scalar FogNoLB.fog[88].server[0] droppedJobsQueue 5
scalar FogNoLB.fog[88].server[0] droppedJobsTimout 0
scalar FogNoLB.fog[88].server[0] droppedJobsSLA 0
scalar FogNoLB.fog[88].server[0] droppedJobsTotal 5
scalar FogNoLB.fog[89].dispatcher localJobs 3332
scalar FogNoLB.fog[89].dispatcher remoteJobs 0
scalar FogNoLB.fog[89].dispatcher probeQueries 0
scalar FogNoLB.fog[89].dispatcher probeAnswers 0
scalar FogNoLB.fog[89].dispatcher droppedJobsSLA 0
scalar FogNoLB.fog[89].dispatcher jobs_class_1 3332
scalar FogNoLB.fog[89].dispatcher localJobs_class_1 3332
scalar FogNoLB.fog[89].server[0] rho 0.51491320133209
scalar FogNoLB.fog[89].server[0] congestionRatio 0
scalar FogNoLB.fog[89].server[0] totalJobs 3332
scalar FogNoLB.fog[89].server[0] droppedJobsQueue 1
scalar FogNoLB.fog[89].server[0] droppedJobsTimout 0
scalar FogNoLB.fog[89].server[0] droppedJobsSLA 0
scalar FogNoLB.fog[89].server[0] droppedJobsTotal 1
scalar FogNoLB.fog[90].dispatcher localJobs 3208
scalar FogNoLB.fog[90].dispatcher remoteJobs 0
scalar FogNoLB.fog[90].dispatcher probeQueries 0
scalar FogNoLB.fog[90].dispatcher probeAnswers 0
scalar FogNoLB.fog[90].dispatcher droppedJobsSLA 0
scalar FogNoLB.fog[90].dispatcher jobs_class_1 3208
scalar FogNoLB.fog[90].dispatcher localJobs_class_1 3208
scalar FogNoLB.fog[90].server[0] rho 0.49600261449814
scalar FogNoLB.fog[90].server[0] congestionRatio 0
scalar FogNoLB.fog[90].server[0] totalJobs 3208
scalar FogNoLB.fog[90].server[0] droppedJobsQueue 1
scalar FogNoLB.fog[90].server[0] droppedJobsTimout 0
scalar FogNoLB.fog[90].server[0] droppedJobsSLA 0
scalar FogNoLB.fog[90].server[0] droppedJobsTotal 1
scalar FogNoLB.fog[91].dispatcher localJobs 3233
scalar FogNoLB.fog[91].dispatcher remoteJobs 0
scalar FogNoLB.fog[91].dispatcher probeQueries 0
scalar FogNoLB.fog[91].dispatcher probeAnswers 0
scalar FogNoLB.fog[91].dispatcher droppedJobsSLA 0
scalar FogNoLB.fog[91].dispatcher jobs_class_1 3233
scalar FogNoLB.fog[91].dispatcher localJobs_class_1 3233
scalar FogNoLB.fog[91].server[0] rho 0.49985352158546
scalar FogNoLB.fog[91].server[0] congestionRatio 0
scalar FogNoLB.fog[91].server[0] totalJobs 3233
scalar FogNoLB.fog[91].server[0] droppedJobsQueue 0
scalar FogNoLB.fog[91].server[0] droppedJobsTimout 0
scalar FogNoLB.fog[91].server[0] droppedJobsSLA 0
scalar FogNoLB.fog[91].server[0] droppedJobsTotal 0
scalar FogNoLB.fog[92].dispatcher localJobs 3228
scalar FogNoLB.fog[92].dispatcher remoteJobs 0
scalar FogNoLB.fog[92].dispatcher probeQueries 0
scalar FogNoLB.fog[92].dispatcher probeAnswers 0
scalar FogNoLB.fog[92].dispatcher droppedJobsSLA 0
scalar FogNoLB.fog[92].dispatcher jobs_class_1 3228
scalar FogNoLB.fog[92].dispatcher localJobs_class_1 3228
scalar FogNoLB.fog[92].server[0] rho 0.4989906847477
scalar FogNoLB.fog[92].server[0] congestionRatio 0
scalar FogNoLB.fog[92].server[0] totalJobs 3228
scalar FogNoLB.fog[92].server[0] droppedJobsQueue 1
scalar FogNoLB.fog[92].server[0] droppedJobsTimout 0
scalar FogNoLB.fog[92].server[0] droppedJobsSLA 0
scalar FogNoLB.fog[92].server[0] droppedJobsTotal 1
scalar FogNoLB.fog[93].dispatcher localJobs 3344
scalar FogNoLB.fog[93].dispatcher remoteJobs 0
scalar FogNoLB.fog[93].dispatcher probeQueries 0
scalar FogNoLB.fog[93].dispatcher probeAnswers 0
scalar FogNoLB.fog[93].dispatcher droppedJobsSLA 0
scalar FogNoLB.fog[93].dispatcher jobs_class_1 3344
scalar FogNoLB.fog[93].dispatcher localJobs_class_1 3344
scalar FogNoLB.fog[93].server[0] rho 0.51696330308914
scalar FogNoLB.fog[93].server[0] congestionRatio 0
scalar FogNoLB.fog[93].server[0] totalJobs 3344
scalar FogNoLB.fog[93].server[0] droppedJobsQueue 0
scalar FogNoLB.fog[93].server[0] droppedJobsTimout 0
scalar FogNoLB.fog[93].server[0] droppedJobsSLA 0
scalar FogNoLB.fog[93].server[0] droppedJobsTotal 0
scalar FogNoLB.fog[94].dispatcher localJobs 3224
scalar FogNoLB.fog[94].dispatcher remoteJobs 0
scalar FogNoLB.fog[94].dispatcher probeQueries 0
scalar FogNoLB.fog[94].dispatcher probeAnswers 0
scalar FogNoLB.fog[94].dispatcher droppedJobsSLA 0
scalar FogNoLB.fog[94].dispatcher jobs_class_1 3224
scalar FogNoLB.fog[94].dispatcher localJobs_class_1 3224
scalar FogNoLB.fog[94].server[0] rho 0.4985768198967
scalar FogNoLB.fog[94].server[0] congestionRatio 0
scalar FogNoLB.fog[94].server[0] totalJobs 3224
scalar FogNoLB.fog[94].server[0] droppedJobsQueue 0
scalar FogNoLB.fog[94].server[0] droppedJobsTimout 0
scalar FogNoLB.fog[94].server[0] droppedJobsSLA 0
scalar FogNoLB.fog[94].server[0] droppedJobsTotal 0
scalar FogNoLB.fog[95].dispatcher localJobs 3244
scalar FogNoLB.fog[95].dispatcher remoteJobs 0
scalar FogNoLB.fog[95].dispatcher probeQueries 0
scalar FogNoLB.fog[95].dispatcher probeAnswers 0
scalar FogNoLB.fog[95].dispatcher droppedJobsSLA 0
scalar FogNoLB.fog[95].dispatcher jobs_class_1 3244
scalar FogNoLB.fog[95].dispatcher localJobs_class_1 3244
scalar FogNoLB.fog[95].server[0] rho 0.50154167413712
scalar FogNoLB.fog[95].server[0] congestionRatio 0
scalar FogNoLB.fog[95].server[0] totalJobs 3244
scalar FogNoLB.fog[95].server[0] droppedJobsQueue 0
scalar FogNoLB.fog[95].server[0] droppedJobsTimout 0
scalar FogNoLB.fog[95].server[0] droppedJobsSLA 0
scalar FogNoLB.fog[95].server[0] droppedJobsTotal 0
scalar FogNoLB.fog[96].dispatcher localJobs 3213
scalar FogNoLB.fog[96].dispatcher remoteJobs 0
scalar FogNoLB.fog[96].dispatcher probeQueries 0
scalar FogNoLB.fog[96].dispatcher probeAnswers 0
scalar FogNoLB.fog[96].dispatcher droppedJobsSLA 0
scalar FogNoLB.fog[96].dispatcher jobs_class_1 3213
scalar FogNoLB.fog[96].dispatcher localJobs_class_1 3213
scalar FogNoLB.fog[96].server[0] rho 0.49657824635506
scalar FogNoLB.fog[96].server[0] congestionRatio 0
scalar FogNoLB.fog[96].server[0] totalJobs 3213
scalar FogNoLB.fog[96].server[0] droppedJobsQueue 0
scalar FogNoLB.fog[96].server[0] droppedJobsTimout 0
scalar FogNoLB.fog[96].server[0] droppedJobsSLA 0
scalar FogNoLB.fog[96].server[0] droppedJobsTotal 0
scalar FogNoLB.fog[97].dispatcher localJobs 3194
scalar FogNoLB.fog[97].dispatcher remoteJobs 0
scalar FogNoLB.fog[97].dispatcher probeQueries 0
scalar FogNoLB.fog[97].dispatcher probeAnswers 0
scalar FogNoLB.fog[97].dispatcher droppedJobsSLA 0
scalar FogNoLB.fog[97].dispatcher jobs_class_1 3194
scalar FogNoLB.fog[97].dispatcher localJobs_class_1 3194
scalar FogNoLB.fog[97].server[0] rho 0.49246168136597
scalar FogNoLB.fog[97].server[0] congestionRatio 0
scalar FogNoLB.fog[97].server[0] totalJobs 3194
scalar FogNoLB.fog[97].server[0] droppedJobsQueue 7
scalar FogNoLB.fog[97].server[0] droppedJobsTimout 0
scalar FogNoLB.fog[97].server[0] droppedJobsSLA 0
scalar FogNoLB.fog[97].server[0] droppedJobsTotal 7
scalar FogNoLB.fog[98].dispatcher localJobs 3147
scalar FogNoLB.fog[98].dispatcher remoteJobs 0
scalar FogNoLB.fog[98].dispatcher probeQueries 0
scalar FogNoLB.fog[98].dispatcher probeAnswers 0
scalar FogNoLB.fog[98].dispatcher droppedJobsSLA 0
scalar FogNoLB.fog[98].dispatcher jobs_class_1 3147
scalar FogNoLB.fog[98].dispatcher localJobs_class_1 3147
scalar FogNoLB.fog[98].server[0] rho 0.48603302240372
scalar FogNoLB.fog[98].server[0] congestionRatio 0
scalar FogNoLB.fog[98].server[0] totalJobs 3147
scalar FogNoLB.fog[98].server[0] droppedJobsQueue 1
scalar FogNoLB.fog[98].server[0] droppedJobsTimout 0
scalar FogNoLB.fog[98].server[0] droppedJobsSLA 0
scalar FogNoLB.fog[98].server[0] droppedJobsTotal 1
scalar FogNoLB.fog[99].dispatcher localJobs 3127
scalar FogNoLB.fog[99].dispatcher remoteJobs 0
scalar FogNoLB.fog[99].dispatcher probeQueries 0
scalar FogNoLB.fog[99].dispatcher probeAnswers 0
scalar FogNoLB.fog[99].dispatcher droppedJobsSLA 0
scalar FogNoLB.fog[99].dispatcher jobs_class_1 3127
scalar FogNoLB.fog[99].dispatcher localJobs_class_1 3127
scalar FogNoLB.fog[99].server[0] rho 0.48324605822563
scalar FogNoLB.fog[99].server[0] congestionRatio 0
scalar FogNoLB.fog[99].server[0] totalJobs 3127
scalar FogNoLB.fog[99].server[0] droppedJobsQueue 1
scalar FogNoLB.fog[99].server[0] droppedJobsTimout 0
scalar FogNoLB.fog[99].server[0] droppedJobsSLA 0
scalar FogNoLB.fog[99].server[0] droppedJobsTotal 1
scalar FogNoLB.sink avg_responseTime_1 2.4995713407385
scalar FogNoLB.sink p90_responseTime_1 1.515758869318
scalar FogNoLB.sink med_responseTime_1 1.515758869318
scalar FogNoLB.sink avg_delayTime_1 0
scalar FogNoLB.sink p90_delayTime_1 0
scalar FogNoLB.sink med_delayTime_1 0
scalar FogNoLB.sink avg_queuingTime_1 0.82959404053675
scalar FogNoLB.sink p90_queuingTime_1 0
scalar FogNoLB.sink med_queuingTime_1 0
scalar FogNoLB.sink avg_serviceTime_1 1.6699773002017
scalar FogNoLB.sink p90_serviceTime_1 1.506737645026
scalar FogNoLB.sink med_serviceTime_1 1.506737645026
scalar FogNoLB.sink avg_balancerTime_1 0
scalar FogNoLB.sink p90_balancerTime_1 0
scalar FogNoLB.sink med_balancerTime_1 0
scalar FogNoLB.sink avg_balancerCount_1 1
scalar FogNoLB.sink p90_balancerCount_1 1
scalar FogNoLB.sink med_balancerCount_1 1

