version 2
run Fog-mul_001-rho_09-thr_5-2-20190711-20:54:18-56945
attr configname Fog-mul_001-rho_09-thr_5
attr datetime 20190711-20:54:18
attr experiment Fog-mul_001-rho_09-thr_5
attr inifile FogQueueLen.ini
attr iterationvars ""
attr iterationvarsf ""
attr measurement ""
attr network FogNoLB
attr processid 56945
attr repetition 2
attr replication #2
attr resultdir results
attr runnumber 2
attr seedset 2
param FogNoLB.proctimeMul 0.01
param FogNoLB.rho 0.9
param FogNoLB.fog[*].server[*].capacity 5
param FogNoLB.nSources 100
param FogNoLB.rho 0.9
param FogNoLB.proctimeMul 1.0
param FogNoLB.source[*].appId 1
param FogNoLB.fog[*].nServers 1
param FogNoLB.fog[*].dispatcher.fanOut 1
param FogNoLB.fog[*].server[*].timeSlice -1s
param FogNoLB.fog[*].server[*].capacity 5
param FogNoLB.fog[*].server[*].fifo true
param FogNoLB.fog[*].server[*].maxServiceTime -1s

scalar FogNoLB.fog[0].dispatcher localJobs 582367
scalar FogNoLB.fog[0].dispatcher remoteJobs 0
scalar FogNoLB.fog[0].dispatcher probeQueries 0
scalar FogNoLB.fog[0].dispatcher probeAnswers 0
scalar FogNoLB.fog[0].dispatcher droppedJobsSLA 0
scalar FogNoLB.fog[0].dispatcher jobs_class_1 582367
scalar FogNoLB.fog[0].dispatcher localJobs_class_1 582367
scalar FogNoLB.fog[0].server[0] rho 0.8576797246933
scalar FogNoLB.fog[0].server[0] congestionRatio 0
scalar FogNoLB.fog[0].server[0] totalJobs 582367
scalar FogNoLB.fog[0].server[0] droppedJobsQueue 27685
scalar FogNoLB.fog[0].server[0] droppedJobsTimout 0
scalar FogNoLB.fog[0].server[0] droppedJobsSLA 0
scalar FogNoLB.fog[0].server[0] droppedJobsTotal 27685
scalar FogNoLB.fog[1].dispatcher localJobs 581825
scalar FogNoLB.fog[1].dispatcher remoteJobs 0
scalar FogNoLB.fog[1].dispatcher probeQueries 0
scalar FogNoLB.fog[1].dispatcher probeAnswers 0
scalar FogNoLB.fog[1].dispatcher droppedJobsSLA 0
scalar FogNoLB.fog[1].dispatcher jobs_class_1 581825
scalar FogNoLB.fog[1].dispatcher localJobs_class_1 581825
scalar FogNoLB.fog[1].server[0] rho 0.85710513591766
scalar FogNoLB.fog[1].server[0] congestionRatio 0
scalar FogNoLB.fog[1].server[0] totalJobs 581825
scalar FogNoLB.fog[1].server[0] droppedJobsQueue 27510
scalar FogNoLB.fog[1].server[0] droppedJobsTimout 0
scalar FogNoLB.fog[1].server[0] droppedJobsSLA 0
scalar FogNoLB.fog[1].server[0] droppedJobsTotal 27510
scalar FogNoLB.fog[2].dispatcher localJobs 580031
scalar FogNoLB.fog[2].dispatcher remoteJobs 0
scalar FogNoLB.fog[2].dispatcher probeQueries 0
scalar FogNoLB.fog[2].dispatcher probeAnswers 0
scalar FogNoLB.fog[2].dispatcher droppedJobsSLA 0
scalar FogNoLB.fog[2].dispatcher jobs_class_1 580031
scalar FogNoLB.fog[2].dispatcher localJobs_class_1 580031
scalar FogNoLB.fog[2].server[0] rho 0.85514467954636
scalar FogNoLB.fog[2].server[0] congestionRatio 0
scalar FogNoLB.fog[2].server[0] totalJobs 580031
scalar FogNoLB.fog[2].server[0] droppedJobsQueue 27032
scalar FogNoLB.fog[2].server[0] droppedJobsTimout 0
scalar FogNoLB.fog[2].server[0] droppedJobsSLA 0
scalar FogNoLB.fog[2].server[0] droppedJobsTotal 27032
scalar FogNoLB.fog[3].dispatcher localJobs 582179
scalar FogNoLB.fog[3].dispatcher remoteJobs 0
scalar FogNoLB.fog[3].dispatcher probeQueries 0
scalar FogNoLB.fog[3].dispatcher probeAnswers 0
scalar FogNoLB.fog[3].dispatcher droppedJobsSLA 0
scalar FogNoLB.fog[3].dispatcher jobs_class_1 582179
scalar FogNoLB.fog[3].dispatcher localJobs_class_1 582179
scalar FogNoLB.fog[3].server[0] rho 0.85705065727234
scalar FogNoLB.fog[3].server[0] congestionRatio 0
scalar FogNoLB.fog[3].server[0] totalJobs 582179
scalar FogNoLB.fog[3].server[0] droppedJobsQueue 27893
scalar FogNoLB.fog[3].server[0] droppedJobsTimout 0
scalar FogNoLB.fog[3].server[0] droppedJobsSLA 0
scalar FogNoLB.fog[3].server[0] droppedJobsTotal 27893
scalar FogNoLB.fog[4].dispatcher localJobs 581270
scalar FogNoLB.fog[4].dispatcher remoteJobs 0
scalar FogNoLB.fog[4].dispatcher probeQueries 0
scalar FogNoLB.fog[4].dispatcher probeAnswers 0
scalar FogNoLB.fog[4].dispatcher droppedJobsSLA 0
scalar FogNoLB.fog[4].dispatcher jobs_class_1 581270
scalar FogNoLB.fog[4].dispatcher localJobs_class_1 581270
scalar FogNoLB.fog[4].server[0] rho 0.85630530118942
scalar FogNoLB.fog[4].server[0] congestionRatio 0
scalar FogNoLB.fog[4].server[0] totalJobs 581270
scalar FogNoLB.fog[4].server[0] droppedJobsQueue 27485
scalar FogNoLB.fog[4].server[0] droppedJobsTimout 0
scalar FogNoLB.fog[4].server[0] droppedJobsSLA 0
scalar FogNoLB.fog[4].server[0] droppedJobsTotal 27485
scalar FogNoLB.fog[5].dispatcher localJobs 582846
scalar FogNoLB.fog[5].dispatcher remoteJobs 0
scalar FogNoLB.fog[5].dispatcher probeQueries 0
scalar FogNoLB.fog[5].dispatcher probeAnswers 0
scalar FogNoLB.fog[5].dispatcher droppedJobsSLA 0
scalar FogNoLB.fog[5].dispatcher jobs_class_1 582846
scalar FogNoLB.fog[5].dispatcher localJobs_class_1 582846
scalar FogNoLB.fog[5].server[0] rho 0.85875117778778
scalar FogNoLB.fog[5].server[0] congestionRatio 0
scalar FogNoLB.fog[5].server[0] totalJobs 582846
scalar FogNoLB.fog[5].server[0] droppedJobsQueue 27496
scalar FogNoLB.fog[5].server[0] droppedJobsTimout 0
scalar FogNoLB.fog[5].server[0] droppedJobsSLA 0
scalar FogNoLB.fog[5].server[0] droppedJobsTotal 27496
scalar FogNoLB.fog[6].dispatcher localJobs 583778
scalar FogNoLB.fog[6].dispatcher remoteJobs 0
scalar FogNoLB.fog[6].dispatcher probeQueries 0
scalar FogNoLB.fog[6].dispatcher probeAnswers 0
scalar FogNoLB.fog[6].dispatcher droppedJobsSLA 0
scalar FogNoLB.fog[6].dispatcher jobs_class_1 583778
scalar FogNoLB.fog[6].dispatcher localJobs_class_1 583778
scalar FogNoLB.fog[6].server[0] rho 0.85910379886627
scalar FogNoLB.fog[6].server[0] congestionRatio 0
scalar FogNoLB.fog[6].server[0] totalJobs 583778
scalar FogNoLB.fog[6].server[0] droppedJobsQueue 28186
scalar FogNoLB.fog[6].server[0] droppedJobsTimout 0
scalar FogNoLB.fog[6].server[0] droppedJobsSLA 0
scalar FogNoLB.fog[6].server[0] droppedJobsTotal 28186
scalar FogNoLB.fog[7].dispatcher localJobs 581588
scalar FogNoLB.fog[7].dispatcher remoteJobs 0
scalar FogNoLB.fog[7].dispatcher probeQueries 0
scalar FogNoLB.fog[7].dispatcher probeAnswers 0
scalar FogNoLB.fog[7].dispatcher droppedJobsSLA 0
scalar FogNoLB.fog[7].dispatcher jobs_class_1 581588
scalar FogNoLB.fog[7].dispatcher localJobs_class_1 581588
scalar FogNoLB.fog[7].server[0] rho 0.85701513290405
scalar FogNoLB.fog[7].server[0] congestionRatio 0
scalar FogNoLB.fog[7].server[0] totalJobs 581588
scalar FogNoLB.fog[7].server[0] droppedJobsQueue 27367
scalar FogNoLB.fog[7].server[0] droppedJobsTimout 0
scalar FogNoLB.fog[7].server[0] droppedJobsSLA 0
scalar FogNoLB.fog[7].server[0] droppedJobsTotal 27367
scalar FogNoLB.fog[8].dispatcher localJobs 582336
scalar FogNoLB.fog[8].dispatcher remoteJobs 0
scalar FogNoLB.fog[8].dispatcher probeQueries 0
scalar FogNoLB.fog[8].dispatcher probeAnswers 0
scalar FogNoLB.fog[8].dispatcher droppedJobsSLA 0
scalar FogNoLB.fog[8].dispatcher jobs_class_1 582336
scalar FogNoLB.fog[8].dispatcher localJobs_class_1 582336
scalar FogNoLB.fog[8].server[0] rho 0.85810941457748
scalar FogNoLB.fog[8].server[0] congestionRatio 0
scalar FogNoLB.fog[8].server[0] totalJobs 582336
scalar FogNoLB.fog[8].server[0] droppedJobsQueue 27390
scalar FogNoLB.fog[8].server[0] droppedJobsTimout 0
scalar FogNoLB.fog[8].server[0] droppedJobsSLA 0
scalar FogNoLB.fog[8].server[0] droppedJobsTotal 27390
scalar FogNoLB.fog[9].dispatcher localJobs 581649
scalar FogNoLB.fog[9].dispatcher remoteJobs 0
scalar FogNoLB.fog[9].dispatcher probeQueries 0
scalar FogNoLB.fog[9].dispatcher probeAnswers 0
scalar FogNoLB.fog[9].dispatcher droppedJobsSLA 0
scalar FogNoLB.fog[9].dispatcher jobs_class_1 581649
scalar FogNoLB.fog[9].dispatcher localJobs_class_1 581649
scalar FogNoLB.fog[9].server[0] rho 0.85709255933762
scalar FogNoLB.fog[9].server[0] congestionRatio 0
scalar FogNoLB.fog[9].server[0] totalJobs 581649
scalar FogNoLB.fog[9].server[0] droppedJobsQueue 27371
scalar FogNoLB.fog[9].server[0] droppedJobsTimout 0
scalar FogNoLB.fog[9].server[0] droppedJobsSLA 0
scalar FogNoLB.fog[9].server[0] droppedJobsTotal 27371
scalar FogNoLB.fog[10].dispatcher localJobs 581660
scalar FogNoLB.fog[10].dispatcher remoteJobs 0
scalar FogNoLB.fog[10].dispatcher probeQueries 0
scalar FogNoLB.fog[10].dispatcher probeAnswers 0
scalar FogNoLB.fog[10].dispatcher droppedJobsSLA 0
scalar FogNoLB.fog[10].dispatcher jobs_class_1 581660
scalar FogNoLB.fog[10].dispatcher localJobs_class_1 581660
scalar FogNoLB.fog[10].server[0] rho 0.85735493898392
scalar FogNoLB.fog[10].server[0] congestionRatio 0
scalar FogNoLB.fog[10].server[0] totalJobs 581660
scalar FogNoLB.fog[10].server[0] droppedJobsQueue 27209
scalar FogNoLB.fog[10].server[0] droppedJobsTimout 0
scalar FogNoLB.fog[10].server[0] droppedJobsSLA 0
scalar FogNoLB.fog[10].server[0] droppedJobsTotal 27209
scalar FogNoLB.fog[11].dispatcher localJobs 581663
scalar FogNoLB.fog[11].dispatcher remoteJobs 0
scalar FogNoLB.fog[11].dispatcher probeQueries 0
scalar FogNoLB.fog[11].dispatcher probeAnswers 0
scalar FogNoLB.fog[11].dispatcher droppedJobsSLA 0
scalar FogNoLB.fog[11].dispatcher jobs_class_1 581663
scalar FogNoLB.fog[11].dispatcher localJobs_class_1 581663
scalar FogNoLB.fog[11].server[0] rho 0.85661816596985
scalar FogNoLB.fog[11].server[0] congestionRatio 0
scalar FogNoLB.fog[11].server[0] totalJobs 581663
scalar FogNoLB.fog[11].server[0] droppedJobsQueue 27694
scalar FogNoLB.fog[11].server[0] droppedJobsTimout 0
scalar FogNoLB.fog[11].server[0] droppedJobsSLA 0
scalar FogNoLB.fog[11].server[0] droppedJobsTotal 27694
scalar FogNoLB.fog[12].dispatcher localJobs 581953
scalar FogNoLB.fog[12].dispatcher remoteJobs 0
scalar FogNoLB.fog[12].dispatcher probeQueries 0
scalar FogNoLB.fog[12].dispatcher probeAnswers 0
scalar FogNoLB.fog[12].dispatcher droppedJobsSLA 0
scalar FogNoLB.fog[12].dispatcher jobs_class_1 581953
scalar FogNoLB.fog[12].dispatcher localJobs_class_1 581953
scalar FogNoLB.fog[12].server[0] rho 0.85763263702393
scalar FogNoLB.fog[12].server[0] congestionRatio 0
scalar FogNoLB.fog[12].server[0] totalJobs 581953
scalar FogNoLB.fog[12].server[0] droppedJobsQueue 27351
scalar FogNoLB.fog[12].server[0] droppedJobsTimout 0
scalar FogNoLB.fog[12].server[0] droppedJobsSLA 0
scalar FogNoLB.fog[12].server[0] droppedJobsTotal 27351
scalar FogNoLB.fog[13].dispatcher localJobs 582387
scalar FogNoLB.fog[13].dispatcher remoteJobs 0
scalar FogNoLB.fog[13].dispatcher probeQueries 0
scalar FogNoLB.fog[13].dispatcher probeAnswers 0
scalar FogNoLB.fog[13].dispatcher droppedJobsSLA 0
scalar FogNoLB.fog[13].dispatcher jobs_class_1 582387
scalar FogNoLB.fog[13].dispatcher localJobs_class_1 582387
scalar FogNoLB.fog[13].server[0] rho 0.85766464471817
scalar FogNoLB.fog[13].server[0] congestionRatio 0
scalar FogNoLB.fog[13].server[0] totalJobs 582387
scalar FogNoLB.fog[13].server[0] droppedJobsQueue 27717
scalar FogNoLB.fog[13].server[0] droppedJobsTimout 0
scalar FogNoLB.fog[13].server[0] droppedJobsSLA 0
scalar FogNoLB.fog[13].server[0] droppedJobsTotal 27717
scalar FogNoLB.fog[14].dispatcher localJobs 583122
scalar FogNoLB.fog[14].dispatcher remoteJobs 0
scalar FogNoLB.fog[14].dispatcher probeQueries 0
scalar FogNoLB.fog[14].dispatcher probeAnswers 0
scalar FogNoLB.fog[14].dispatcher droppedJobsSLA 0
scalar FogNoLB.fog[14].dispatcher jobs_class_1 583122
scalar FogNoLB.fog[14].dispatcher localJobs_class_1 583122
scalar FogNoLB.fog[14].server[0] rho 0.8584291934967
scalar FogNoLB.fog[14].server[0] congestionRatio 0
scalar FogNoLB.fog[14].server[0] totalJobs 583122
scalar FogNoLB.fog[14].server[0] droppedJobsQueue 27944
scalar FogNoLB.fog[14].server[0] droppedJobsTimout 0
scalar FogNoLB.fog[14].server[0] droppedJobsSLA 0
scalar FogNoLB.fog[14].server[0] droppedJobsTotal 27944
scalar FogNoLB.fog[15].dispatcher localJobs 580604
scalar FogNoLB.fog[15].dispatcher remoteJobs 0
scalar FogNoLB.fog[15].dispatcher probeQueries 0
scalar FogNoLB.fog[15].dispatcher probeAnswers 0
scalar FogNoLB.fog[15].dispatcher droppedJobsSLA 0
scalar FogNoLB.fog[15].dispatcher jobs_class_1 580604
scalar FogNoLB.fog[15].dispatcher localJobs_class_1 580604
scalar FogNoLB.fog[15].server[0] rho 0.85622477531433
scalar FogNoLB.fog[15].server[0] congestionRatio 0
scalar FogNoLB.fog[15].server[0] totalJobs 580604
scalar FogNoLB.fog[15].server[0] droppedJobsQueue 26898
scalar FogNoLB.fog[15].server[0] droppedJobsTimout 0
scalar FogNoLB.fog[15].server[0] droppedJobsSLA 0
scalar FogNoLB.fog[15].server[0] droppedJobsTotal 26898
scalar FogNoLB.fog[16].dispatcher localJobs 583129
scalar FogNoLB.fog[16].dispatcher remoteJobs 0
scalar FogNoLB.fog[16].dispatcher probeQueries 0
scalar FogNoLB.fog[16].dispatcher probeAnswers 0
scalar FogNoLB.fog[16].dispatcher droppedJobsSLA 0
scalar FogNoLB.fog[16].dispatcher jobs_class_1 583129
scalar FogNoLB.fog[16].dispatcher localJobs_class_1 583129
scalar FogNoLB.fog[16].server[0] rho 0.85856240987778
scalar FogNoLB.fog[16].server[0] congestionRatio 0
scalar FogNoLB.fog[16].server[0] totalJobs 583129
scalar FogNoLB.fog[16].server[0] droppedJobsQueue 27892
scalar FogNoLB.fog[16].server[0] droppedJobsTimout 0
scalar FogNoLB.fog[16].server[0] droppedJobsSLA 0
scalar FogNoLB.fog[16].server[0] droppedJobsTotal 27892
scalar FogNoLB.fog[17].dispatcher localJobs 581809
scalar FogNoLB.fog[17].dispatcher remoteJobs 0
scalar FogNoLB.fog[17].dispatcher probeQueries 0
scalar FogNoLB.fog[17].dispatcher probeAnswers 0
scalar FogNoLB.fog[17].dispatcher droppedJobsSLA 0
scalar FogNoLB.fog[17].dispatcher jobs_class_1 581809
scalar FogNoLB.fog[17].dispatcher localJobs_class_1 581809
scalar FogNoLB.fog[17].server[0] rho 0.85709083080292
scalar FogNoLB.fog[17].server[0] congestionRatio 0
scalar FogNoLB.fog[17].server[0] totalJobs 581809
scalar FogNoLB.fog[17].server[0] droppedJobsQueue 27512
scalar FogNoLB.fog[17].server[0] droppedJobsTimout 0
scalar FogNoLB.fog[17].server[0] droppedJobsSLA 0
scalar FogNoLB.fog[17].server[0] droppedJobsTotal 27512
scalar FogNoLB.fog[18].dispatcher localJobs 581924
scalar FogNoLB.fog[18].dispatcher remoteJobs 0
scalar FogNoLB.fog[18].dispatcher probeQueries 0
scalar FogNoLB.fog[18].dispatcher probeAnswers 0
scalar FogNoLB.fog[18].dispatcher droppedJobsSLA 0
scalar FogNoLB.fog[18].dispatcher jobs_class_1 581924
scalar FogNoLB.fog[18].dispatcher localJobs_class_1 581924
scalar FogNoLB.fog[18].server[0] rho 0.85754150152206
scalar FogNoLB.fog[18].server[0] congestionRatio 0
scalar FogNoLB.fog[18].server[0] totalJobs 581924
scalar FogNoLB.fog[18].server[0] droppedJobsQueue 27356
scalar FogNoLB.fog[18].server[0] droppedJobsTimout 0
scalar FogNoLB.fog[18].server[0] droppedJobsSLA 0
scalar FogNoLB.fog[18].server[0] droppedJobsTotal 27356
scalar FogNoLB.fog[19].dispatcher localJobs 582196
scalar FogNoLB.fog[19].dispatcher remoteJobs 0
scalar FogNoLB.fog[19].dispatcher probeQueries 0
scalar FogNoLB.fog[19].dispatcher probeAnswers 0
scalar FogNoLB.fog[19].dispatcher droppedJobsSLA 0
scalar FogNoLB.fog[19].dispatcher jobs_class_1 582196
scalar FogNoLB.fog[19].dispatcher localJobs_class_1 582196
scalar FogNoLB.fog[19].server[0] rho 0.85757726430893
scalar FogNoLB.fog[19].server[0] congestionRatio 0
scalar FogNoLB.fog[19].server[0] totalJobs 582196
scalar FogNoLB.fog[19].server[0] droppedJobsQueue 27597
scalar FogNoLB.fog[19].server[0] droppedJobsTimout 0
scalar FogNoLB.fog[19].server[0] droppedJobsSLA 0
scalar FogNoLB.fog[19].server[0] droppedJobsTotal 27597
scalar FogNoLB.fog[20].dispatcher localJobs 583128
scalar FogNoLB.fog[20].dispatcher remoteJobs 0
scalar FogNoLB.fog[20].dispatcher probeQueries 0
scalar FogNoLB.fog[20].dispatcher probeAnswers 0
scalar FogNoLB.fog[20].dispatcher droppedJobsSLA 0
scalar FogNoLB.fog[20].dispatcher jobs_class_1 583128
scalar FogNoLB.fog[20].dispatcher localJobs_class_1 583128
scalar FogNoLB.fog[20].server[0] rho 0.85892373323441
scalar FogNoLB.fog[20].server[0] congestionRatio 0
scalar FogNoLB.fog[20].server[0] totalJobs 583128
scalar FogNoLB.fog[20].server[0] droppedJobsQueue 27614
scalar FogNoLB.fog[20].server[0] droppedJobsTimout 0
scalar FogNoLB.fog[20].server[0] droppedJobsSLA 0
scalar FogNoLB.fog[20].server[0] droppedJobsTotal 27614
scalar FogNoLB.fog[21].dispatcher localJobs 583820
scalar FogNoLB.fog[21].dispatcher remoteJobs 0
scalar FogNoLB.fog[21].dispatcher probeQueries 0
scalar FogNoLB.fog[21].dispatcher probeAnswers 0
scalar FogNoLB.fog[21].dispatcher droppedJobsSLA 0
scalar FogNoLB.fog[21].dispatcher jobs_class_1 583820
scalar FogNoLB.fog[21].dispatcher localJobs_class_1 583820
scalar FogNoLB.fog[21].server[0] rho 0.8594001531601
scalar FogNoLB.fog[21].server[0] congestionRatio 0
scalar FogNoLB.fog[21].server[0] totalJobs 583820
scalar FogNoLB.fog[21].server[0] droppedJobsQueue 28026
scalar FogNoLB.fog[21].server[0] droppedJobsTimout 0
scalar FogNoLB.fog[21].server[0] droppedJobsSLA 0
scalar FogNoLB.fog[21].server[0] droppedJobsTotal 28026
scalar FogNoLB.fog[22].dispatcher localJobs 583004
scalar FogNoLB.fog[22].dispatcher remoteJobs 0
scalar FogNoLB.fog[22].dispatcher probeQueries 0
scalar FogNoLB.fog[22].dispatcher probeAnswers 0
scalar FogNoLB.fog[22].dispatcher droppedJobsSLA 0
scalar FogNoLB.fog[22].dispatcher jobs_class_1 583004
scalar FogNoLB.fog[22].dispatcher localJobs_class_1 583004
scalar FogNoLB.fog[22].server[0] rho 0.85880833864212
scalar FogNoLB.fog[22].server[0] congestionRatio 0
scalar FogNoLB.fog[22].server[0] totalJobs 583004
scalar FogNoLB.fog[22].server[0] droppedJobsQueue 27609
scalar FogNoLB.fog[22].server[0] droppedJobsTimout 0
scalar FogNoLB.fog[22].server[0] droppedJobsSLA 0
scalar FogNoLB.fog[22].server[0] droppedJobsTotal 27609
scalar FogNoLB.fog[23].dispatcher localJobs 582080
scalar FogNoLB.fog[23].dispatcher remoteJobs 0
scalar FogNoLB.fog[23].dispatcher probeQueries 0
scalar FogNoLB.fog[23].dispatcher probeAnswers 0
scalar FogNoLB.fog[23].dispatcher droppedJobsSLA 0
scalar FogNoLB.fog[23].dispatcher jobs_class_1 582080
scalar FogNoLB.fog[23].dispatcher localJobs_class_1 582080
scalar FogNoLB.fog[23].server[0] rho 0.8575644493103
scalar FogNoLB.fog[23].server[0] congestionRatio 0
scalar FogNoLB.fog[23].server[0] totalJobs 582080
scalar FogNoLB.fog[23].server[0] droppedJobsQueue 27458
scalar FogNoLB.fog[23].server[0] droppedJobsTimout 0
scalar FogNoLB.fog[23].server[0] droppedJobsSLA 0
scalar FogNoLB.fog[23].server[0] droppedJobsTotal 27458
scalar FogNoLB.fog[24].dispatcher localJobs 581831
scalar FogNoLB.fog[24].dispatcher remoteJobs 0
scalar FogNoLB.fog[24].dispatcher probeQueries 0
scalar FogNoLB.fog[24].dispatcher probeAnswers 0
scalar FogNoLB.fog[24].dispatcher droppedJobsSLA 0
scalar FogNoLB.fog[24].dispatcher jobs_class_1 581831
scalar FogNoLB.fog[24].dispatcher localJobs_class_1 581831
scalar FogNoLB.fog[24].server[0] rho 0.85726493597031
scalar FogNoLB.fog[24].server[0] congestionRatio 0
scalar FogNoLB.fog[24].server[0] totalJobs 581831
scalar FogNoLB.fog[24].server[0] droppedJobsQueue 27429
scalar FogNoLB.fog[24].server[0] droppedJobsTimout 0
scalar FogNoLB.fog[24].server[0] droppedJobsSLA 0
scalar FogNoLB.fog[24].server[0] droppedJobsTotal 27429
scalar FogNoLB.fog[25].dispatcher localJobs 581606
scalar FogNoLB.fog[25].dispatcher remoteJobs 0
scalar FogNoLB.fog[25].dispatcher probeQueries 0
scalar FogNoLB.fog[25].dispatcher probeAnswers 0
scalar FogNoLB.fog[25].dispatcher droppedJobsSLA 0
scalar FogNoLB.fog[25].dispatcher jobs_class_1 581606
scalar FogNoLB.fog[25].dispatcher localJobs_class_1 581606
scalar FogNoLB.fog[25].server[0] rho 0.85689491033554
scalar FogNoLB.fog[25].server[0] congestionRatio 0
scalar FogNoLB.fog[25].server[0] totalJobs 581606
scalar FogNoLB.fog[25].server[0] droppedJobsQueue 27428
scalar FogNoLB.fog[25].server[0] droppedJobsTimout 0
scalar FogNoLB.fog[25].server[0] droppedJobsSLA 0
scalar FogNoLB.fog[25].server[0] droppedJobsTotal 27428
scalar FogNoLB.fog[26].dispatcher localJobs 582554
scalar FogNoLB.fog[26].dispatcher remoteJobs 0
scalar FogNoLB.fog[26].dispatcher probeQueries 0
scalar FogNoLB.fog[26].dispatcher probeAnswers 0
scalar FogNoLB.fog[26].dispatcher droppedJobsSLA 0
scalar FogNoLB.fog[26].dispatcher jobs_class_1 582554
scalar FogNoLB.fog[26].dispatcher localJobs_class_1 582554
scalar FogNoLB.fog[26].server[0] rho 0.85757315158844
scalar FogNoLB.fog[26].server[0] congestionRatio 0
scalar FogNoLB.fog[26].server[0] totalJobs 582554
scalar FogNoLB.fog[26].server[0] droppedJobsQueue 27955
scalar FogNoLB.fog[26].server[0] droppedJobsTimout 0
scalar FogNoLB.fog[26].server[0] droppedJobsSLA 0
scalar FogNoLB.fog[26].server[0] droppedJobsTotal 27955
scalar FogNoLB.fog[27].dispatcher localJobs 581492
scalar FogNoLB.fog[27].dispatcher remoteJobs 0
scalar FogNoLB.fog[27].dispatcher probeQueries 0
scalar FogNoLB.fog[27].dispatcher probeAnswers 0
scalar FogNoLB.fog[27].dispatcher droppedJobsSLA 0
scalar FogNoLB.fog[27].dispatcher jobs_class_1 581492
scalar FogNoLB.fog[27].dispatcher localJobs_class_1 581492
scalar FogNoLB.fog[27].server[0] rho 0.85639816522598
scalar FogNoLB.fog[27].server[0] congestionRatio 0
scalar FogNoLB.fog[27].server[0] totalJobs 581492
scalar FogNoLB.fog[27].server[0] droppedJobsQueue 27660
scalar FogNoLB.fog[27].server[0] droppedJobsTimout 0
scalar FogNoLB.fog[27].server[0] droppedJobsSLA 0
scalar FogNoLB.fog[27].server[0] droppedJobsTotal 27660
scalar FogNoLB.fog[28].dispatcher localJobs 581954
scalar FogNoLB.fog[28].dispatcher remoteJobs 0
scalar FogNoLB.fog[28].dispatcher probeQueries 0
scalar FogNoLB.fog[28].dispatcher probeAnswers 0
scalar FogNoLB.fog[28].dispatcher droppedJobsSLA 0
scalar FogNoLB.fog[28].dispatcher jobs_class_1 581954
scalar FogNoLB.fog[28].dispatcher localJobs_class_1 581954
scalar FogNoLB.fog[28].server[0] rho 0.85734987258911
scalar FogNoLB.fog[28].server[0] congestionRatio 0
scalar FogNoLB.fog[28].server[0] totalJobs 581954
scalar FogNoLB.fog[28].server[0] droppedJobsQueue 27502
scalar FogNoLB.fog[28].server[0] droppedJobsTimout 0
scalar FogNoLB.fog[28].server[0] droppedJobsSLA 0
scalar FogNoLB.fog[28].server[0] droppedJobsTotal 27502
scalar FogNoLB.fog[29].dispatcher localJobs 582043
scalar FogNoLB.fog[29].dispatcher remoteJobs 0
scalar FogNoLB.fog[29].dispatcher probeQueries 0
scalar FogNoLB.fog[29].dispatcher probeAnswers 0
scalar FogNoLB.fog[29].dispatcher droppedJobsSLA 0
scalar FogNoLB.fog[29].dispatcher jobs_class_1 582043
scalar FogNoLB.fog[29].dispatcher localJobs_class_1 582043
scalar FogNoLB.fog[29].server[0] rho 0.85723900794983
scalar FogNoLB.fog[29].server[0] congestionRatio 0
scalar FogNoLB.fog[29].server[0] totalJobs 582043
scalar FogNoLB.fog[29].server[0] droppedJobsQueue 27680
scalar FogNoLB.fog[29].server[0] droppedJobsTimout 0
scalar FogNoLB.fog[29].server[0] droppedJobsSLA 0
scalar FogNoLB.fog[29].server[0] droppedJobsTotal 27680
scalar FogNoLB.fog[30].dispatcher localJobs 582426
scalar FogNoLB.fog[30].dispatcher remoteJobs 0
scalar FogNoLB.fog[30].dispatcher probeQueries 0
scalar FogNoLB.fog[30].dispatcher probeAnswers 0
scalar FogNoLB.fog[30].dispatcher droppedJobsSLA 0
scalar FogNoLB.fog[30].dispatcher jobs_class_1 582426
scalar FogNoLB.fog[30].dispatcher localJobs_class_1 582426
scalar FogNoLB.fog[30].server[0] rho 0.8575793504715
scalar FogNoLB.fog[30].server[0] congestionRatio 0
scalar FogNoLB.fog[30].server[0] totalJobs 582426
scalar FogNoLB.fog[30].server[0] droppedJobsQueue 27807
scalar FogNoLB.fog[30].server[0] droppedJobsTimout 0
scalar FogNoLB.fog[30].server[0] droppedJobsSLA 0
scalar FogNoLB.fog[30].server[0] droppedJobsTotal 27807
scalar FogNoLB.fog[31].dispatcher localJobs 582689
scalar FogNoLB.fog[31].dispatcher remoteJobs 0
scalar FogNoLB.fog[31].dispatcher probeQueries 0
scalar FogNoLB.fog[31].dispatcher probeAnswers 0
scalar FogNoLB.fog[31].dispatcher droppedJobsSLA 0
scalar FogNoLB.fog[31].dispatcher jobs_class_1 582689
scalar FogNoLB.fog[31].dispatcher localJobs_class_1 582689
scalar FogNoLB.fog[31].server[0] rho 0.85776644945145
scalar FogNoLB.fog[31].server[0] congestionRatio 0
scalar FogNoLB.fog[31].server[0] totalJobs 582689
scalar FogNoLB.fog[31].server[0] droppedJobsQueue 27987
scalar FogNoLB.fog[31].server[0] droppedJobsTimout 0
scalar FogNoLB.fog[31].server[0] droppedJobsSLA 0
scalar FogNoLB.fog[31].server[0] droppedJobsTotal 27987
scalar FogNoLB.fog[32].dispatcher localJobs 581948
scalar FogNoLB.fog[32].dispatcher remoteJobs 0
scalar FogNoLB.fog[32].dispatcher probeQueries 0
scalar FogNoLB.fog[32].dispatcher probeAnswers 0
scalar FogNoLB.fog[32].dispatcher droppedJobsSLA 0
scalar FogNoLB.fog[32].dispatcher jobs_class_1 581948
scalar FogNoLB.fog[32].dispatcher localJobs_class_1 581948
scalar FogNoLB.fog[32].server[0] rho 0.85738027095795
scalar FogNoLB.fog[32].server[0] congestionRatio 0
scalar FogNoLB.fog[32].server[0] totalJobs 581948
scalar FogNoLB.fog[32].server[0] droppedJobsQueue 27485
scalar FogNoLB.fog[32].server[0] droppedJobsTimout 0
scalar FogNoLB.fog[32].server[0] droppedJobsSLA 0
scalar FogNoLB.fog[32].server[0] droppedJobsTotal 27485
scalar FogNoLB.fog[33].dispatcher localJobs 583311
scalar FogNoLB.fog[33].dispatcher remoteJobs 0
scalar FogNoLB.fog[33].dispatcher probeQueries 0
scalar FogNoLB.fog[33].dispatcher probeAnswers 0
scalar FogNoLB.fog[33].dispatcher droppedJobsSLA 0
scalar FogNoLB.fog[33].dispatcher jobs_class_1 583311
scalar FogNoLB.fog[33].dispatcher localJobs_class_1 583311
scalar FogNoLB.fog[33].server[0] rho 0.85873657464981
scalar FogNoLB.fog[33].server[0] congestionRatio 0
scalar FogNoLB.fog[33].server[0] totalJobs 583311
scalar FogNoLB.fog[33].server[0] droppedJobsQueue 27940
scalar FogNoLB.fog[33].server[0] droppedJobsTimout 0
scalar FogNoLB.fog[33].server[0] droppedJobsSLA 0
scalar FogNoLB.fog[33].server[0] droppedJobsTotal 27940
scalar FogNoLB.fog[34].dispatcher localJobs 581597
scalar FogNoLB.fog[34].dispatcher remoteJobs 0
scalar FogNoLB.fog[34].dispatcher probeQueries 0
scalar FogNoLB.fog[34].dispatcher probeAnswers 0
scalar FogNoLB.fog[34].dispatcher droppedJobsSLA 0
scalar FogNoLB.fog[34].dispatcher jobs_class_1 581597
scalar FogNoLB.fog[34].dispatcher localJobs_class_1 581597
scalar FogNoLB.fog[34].server[0] rho 0.85727328062057
scalar FogNoLB.fog[34].server[0] congestionRatio 0
scalar FogNoLB.fog[34].server[0] totalJobs 581597
scalar FogNoLB.fog[34].server[0] droppedJobsQueue 27174
scalar FogNoLB.fog[34].server[0] droppedJobsTimout 0
scalar FogNoLB.fog[34].server[0] droppedJobsSLA 0
scalar FogNoLB.fog[34].server[0] droppedJobsTotal 27174
scalar FogNoLB.fog[35].dispatcher localJobs 582985
scalar FogNoLB.fog[35].dispatcher remoteJobs 0
scalar FogNoLB.fog[35].dispatcher probeQueries 0
scalar FogNoLB.fog[35].dispatcher probeAnswers 0
scalar FogNoLB.fog[35].dispatcher droppedJobsSLA 0
scalar FogNoLB.fog[35].dispatcher jobs_class_1 582985
scalar FogNoLB.fog[35].dispatcher localJobs_class_1 582985
scalar FogNoLB.fog[35].server[0] rho 0.8580037355423
scalar FogNoLB.fog[35].server[0] congestionRatio 0
scalar FogNoLB.fog[35].server[0] totalJobs 582985
scalar FogNoLB.fog[35].server[0] droppedJobsQueue 28110
scalar FogNoLB.fog[35].server[0] droppedJobsTimout 0
scalar FogNoLB.fog[35].server[0] droppedJobsSLA 0
scalar FogNoLB.fog[35].server[0] droppedJobsTotal 28110
scalar FogNoLB.fog[36].dispatcher localJobs 582293
scalar FogNoLB.fog[36].dispatcher remoteJobs 0
scalar FogNoLB.fog[36].dispatcher probeQueries 0
scalar FogNoLB.fog[36].dispatcher probeAnswers 0
scalar FogNoLB.fog[36].dispatcher droppedJobsSLA 0
scalar FogNoLB.fog[36].dispatcher jobs_class_1 582293
scalar FogNoLB.fog[36].dispatcher localJobs_class_1 582293
scalar FogNoLB.fog[36].server[0] rho 0.85775774717331
scalar FogNoLB.fog[36].server[0] congestionRatio 0
scalar FogNoLB.fog[36].server[0] totalJobs 582293
scalar FogNoLB.fog[36].server[0] droppedJobsQueue 27568
scalar FogNoLB.fog[36].server[0] droppedJobsTimout 0
scalar FogNoLB.fog[36].server[0] droppedJobsSLA 0
scalar FogNoLB.fog[36].server[0] droppedJobsTotal 27568
scalar FogNoLB.fog[37].dispatcher localJobs 582121
scalar FogNoLB.fog[37].dispatcher remoteJobs 0
scalar FogNoLB.fog[37].dispatcher probeQueries 0
scalar FogNoLB.fog[37].dispatcher probeAnswers 0
scalar FogNoLB.fog[37].dispatcher droppedJobsSLA 0
scalar FogNoLB.fog[37].dispatcher jobs_class_1 582121
scalar FogNoLB.fog[37].dispatcher localJobs_class_1 582121
scalar FogNoLB.fog[37].server[0] rho 0.85763138532639
scalar FogNoLB.fog[37].server[0] congestionRatio 0
scalar FogNoLB.fog[37].server[0] totalJobs 582121
scalar FogNoLB.fog[37].server[0] droppedJobsQueue 27471
scalar FogNoLB.fog[37].server[0] droppedJobsTimout 0
scalar FogNoLB.fog[37].server[0] droppedJobsSLA 0
scalar FogNoLB.fog[37].server[0] droppedJobsTotal 27471
scalar FogNoLB.fog[38].dispatcher localJobs 580986
scalar FogNoLB.fog[38].dispatcher remoteJobs 0
scalar FogNoLB.fog[38].dispatcher probeQueries 0
scalar FogNoLB.fog[38].dispatcher probeAnswers 0
scalar FogNoLB.fog[38].dispatcher droppedJobsSLA 0
scalar FogNoLB.fog[38].dispatcher jobs_class_1 580986
scalar FogNoLB.fog[38].dispatcher localJobs_class_1 580986
scalar FogNoLB.fog[38].server[0] rho 0.85617780685425
scalar FogNoLB.fog[38].server[0] congestionRatio 0
scalar FogNoLB.fog[38].server[0] totalJobs 580986
scalar FogNoLB.fog[38].server[0] droppedJobsQueue 27259
scalar FogNoLB.fog[38].server[0] droppedJobsTimout 0
scalar FogNoLB.fog[38].server[0] droppedJobsSLA 0
scalar FogNoLB.fog[38].server[0] droppedJobsTotal 27259
scalar FogNoLB.fog[39].dispatcher localJobs 582431
scalar FogNoLB.fog[39].dispatcher remoteJobs 0
scalar FogNoLB.fog[39].dispatcher probeQueries 0
scalar FogNoLB.fog[39].dispatcher probeAnswers 0
scalar FogNoLB.fog[39].dispatcher droppedJobsSLA 0
scalar FogNoLB.fog[39].dispatcher jobs_class_1 582431
scalar FogNoLB.fog[39].dispatcher localJobs_class_1 582431
scalar FogNoLB.fog[39].server[0] rho 0.85710120201111
scalar FogNoLB.fog[39].server[0] congestionRatio 0
scalar FogNoLB.fog[39].server[0] totalJobs 582431
scalar FogNoLB.fog[39].server[0] droppedJobsQueue 28151
scalar FogNoLB.fog[39].server[0] droppedJobsTimout 0
scalar FogNoLB.fog[39].server[0] droppedJobsSLA 0
scalar FogNoLB.fog[39].server[0] droppedJobsTotal 28151
scalar FogNoLB.fog[40].dispatcher localJobs 580943
scalar FogNoLB.fog[40].dispatcher remoteJobs 0
scalar FogNoLB.fog[40].dispatcher probeQueries 0
scalar FogNoLB.fog[40].dispatcher probeAnswers 0
scalar FogNoLB.fog[40].dispatcher droppedJobsSLA 0
scalar FogNoLB.fog[40].dispatcher jobs_class_1 580943
scalar FogNoLB.fog[40].dispatcher localJobs_class_1 580943
scalar FogNoLB.fog[40].server[0] rho 0.85647118091583
scalar FogNoLB.fog[40].server[0] congestionRatio 0
scalar FogNoLB.fog[40].server[0] totalJobs 580943
scalar FogNoLB.fog[40].server[0] droppedJobsQueue 27031
scalar FogNoLB.fog[40].server[0] droppedJobsTimout 0
scalar FogNoLB.fog[40].server[0] droppedJobsSLA 0
scalar FogNoLB.fog[40].server[0] droppedJobsTotal 27031
scalar FogNoLB.fog[41].dispatcher localJobs 581801
scalar FogNoLB.fog[41].dispatcher remoteJobs 0
scalar FogNoLB.fog[41].dispatcher probeQueries 0
scalar FogNoLB.fog[41].dispatcher probeAnswers 0
scalar FogNoLB.fog[41].dispatcher droppedJobsSLA 0
scalar FogNoLB.fog[41].dispatcher jobs_class_1 581801
scalar FogNoLB.fog[41].dispatcher localJobs_class_1 581801
scalar FogNoLB.fog[41].server[0] rho 0.85719096660614
scalar FogNoLB.fog[41].server[0] congestionRatio 0
scalar FogNoLB.fog[41].server[0] totalJobs 581801
scalar FogNoLB.fog[41].server[0] droppedJobsQueue 27451
scalar FogNoLB.fog[41].server[0] droppedJobsTimout 0
scalar FogNoLB.fog[41].server[0] droppedJobsSLA 0
scalar FogNoLB.fog[41].server[0] droppedJobsTotal 27451
scalar FogNoLB.fog[42].dispatcher localJobs 581795
scalar FogNoLB.fog[42].dispatcher remoteJobs 0
scalar FogNoLB.fog[42].dispatcher probeQueries 0
scalar FogNoLB.fog[42].dispatcher probeAnswers 0
scalar FogNoLB.fog[42].dispatcher droppedJobsSLA 0
scalar FogNoLB.fog[42].dispatcher jobs_class_1 581795
scalar FogNoLB.fog[42].dispatcher localJobs_class_1 581795
scalar FogNoLB.fog[42].server[0] rho 0.85750716924667
scalar FogNoLB.fog[42].server[0] congestionRatio 0
scalar FogNoLB.fog[42].server[0] totalJobs 581795
scalar FogNoLB.fog[42].server[0] droppedJobsQueue 27231
scalar FogNoLB.fog[42].server[0] droppedJobsTimout 0
scalar FogNoLB.fog[42].server[0] droppedJobsSLA 0
scalar FogNoLB.fog[42].server[0] droppedJobsTotal 27231
scalar FogNoLB.fog[43].dispatcher localJobs 582393
scalar FogNoLB.fog[43].dispatcher remoteJobs 0
scalar FogNoLB.fog[43].dispatcher probeQueries 0
scalar FogNoLB.fog[43].dispatcher probeAnswers 0
scalar FogNoLB.fog[43].dispatcher droppedJobsSLA 0
scalar FogNoLB.fog[43].dispatcher jobs_class_1 582393
scalar FogNoLB.fog[43].dispatcher localJobs_class_1 582393
scalar FogNoLB.fog[43].server[0] rho 0.85814142227173
scalar FogNoLB.fog[43].server[0] congestionRatio 0
scalar FogNoLB.fog[43].server[0] totalJobs 582393
scalar FogNoLB.fog[43].server[0] droppedJobsQueue 27416
scalar FogNoLB.fog[43].server[0] droppedJobsTimout 0
scalar FogNoLB.fog[43].server[0] droppedJobsSLA 0
scalar FogNoLB.fog[43].server[0] droppedJobsTotal 27416
scalar FogNoLB.fog[44].dispatcher localJobs 580415
scalar FogNoLB.fog[44].dispatcher remoteJobs 0
scalar FogNoLB.fog[44].dispatcher probeQueries 0
scalar FogNoLB.fog[44].dispatcher probeAnswers 0
scalar FogNoLB.fog[44].dispatcher droppedJobsSLA 0
scalar FogNoLB.fog[44].dispatcher jobs_class_1 580415
scalar FogNoLB.fog[44].dispatcher localJobs_class_1 580415
scalar FogNoLB.fog[44].server[0] rho 0.85633367300034
scalar FogNoLB.fog[44].server[0] congestionRatio 0
scalar FogNoLB.fog[44].server[0] totalJobs 580415
scalar FogNoLB.fog[44].server[0] droppedJobsQueue 26592
scalar FogNoLB.fog[44].server[0] droppedJobsTimout 0
scalar FogNoLB.fog[44].server[0] droppedJobsSLA 0
scalar FogNoLB.fog[44].server[0] droppedJobsTotal 26592
scalar FogNoLB.fog[45].dispatcher localJobs 580844
scalar FogNoLB.fog[45].dispatcher remoteJobs 0
scalar FogNoLB.fog[45].dispatcher probeQueries 0
scalar FogNoLB.fog[45].dispatcher probeAnswers 0
scalar FogNoLB.fog[45].dispatcher droppedJobsSLA 0
scalar FogNoLB.fog[45].dispatcher jobs_class_1 580844
scalar FogNoLB.fog[45].dispatcher localJobs_class_1 580844
scalar FogNoLB.fog[45].server[0] rho 0.85620909929276
scalar FogNoLB.fog[45].server[0] congestionRatio 0
scalar FogNoLB.fog[45].server[0] totalJobs 580844
scalar FogNoLB.fog[45].server[0] droppedJobsQueue 27114
scalar FogNoLB.fog[45].server[0] droppedJobsTimout 0
scalar FogNoLB.fog[45].server[0] droppedJobsSLA 0
scalar FogNoLB.fog[45].server[0] droppedJobsTotal 27114
scalar FogNoLB.fog[46].dispatcher localJobs 581219
scalar FogNoLB.fog[46].dispatcher remoteJobs 0
scalar FogNoLB.fog[46].dispatcher probeQueries 0
scalar FogNoLB.fog[46].dispatcher probeAnswers 0
scalar FogNoLB.fog[46].dispatcher droppedJobsSLA 0
scalar FogNoLB.fog[46].dispatcher jobs_class_1 581219
scalar FogNoLB.fog[46].dispatcher localJobs_class_1 581219
scalar FogNoLB.fog[46].server[0] rho 0.85651224851608
scalar FogNoLB.fog[46].server[0] congestionRatio 0
scalar FogNoLB.fog[46].server[0] totalJobs 581219
scalar FogNoLB.fog[46].server[0] droppedJobsQueue 27285
scalar FogNoLB.fog[46].server[0] droppedJobsTimout 0
scalar FogNoLB.fog[46].server[0] droppedJobsSLA 0
scalar FogNoLB.fog[46].server[0] droppedJobsTotal 27285
scalar FogNoLB.fog[47].dispatcher localJobs 579846
scalar FogNoLB.fog[47].dispatcher remoteJobs 0
scalar FogNoLB.fog[47].dispatcher probeQueries 0
scalar FogNoLB.fog[47].dispatcher probeAnswers 0
scalar FogNoLB.fog[47].dispatcher droppedJobsSLA 0
scalar FogNoLB.fog[47].dispatcher jobs_class_1 579846
scalar FogNoLB.fog[47].dispatcher localJobs_class_1 579846
scalar FogNoLB.fog[47].server[0] rho 0.85565769672394
scalar FogNoLB.fog[47].server[0] congestionRatio 0
scalar FogNoLB.fog[47].server[0] totalJobs 579846
scalar FogNoLB.fog[47].server[0] droppedJobsQueue 26486
scalar FogNoLB.fog[47].server[0] droppedJobsTimout 0
scalar FogNoLB.fog[47].server[0] droppedJobsSLA 0
scalar FogNoLB.fog[47].server[0] droppedJobsTotal 26486
scalar FogNoLB.fog[48].dispatcher localJobs 582782
scalar FogNoLB.fog[48].dispatcher remoteJobs 0
scalar FogNoLB.fog[48].dispatcher probeQueries 0
scalar FogNoLB.fog[48].dispatcher probeAnswers 0
scalar FogNoLB.fog[48].dispatcher droppedJobsSLA 0
scalar FogNoLB.fog[48].dispatcher jobs_class_1 582782
scalar FogNoLB.fog[48].dispatcher localJobs_class_1 582782
scalar FogNoLB.fog[48].server[0] rho 0.85812091827393
scalar FogNoLB.fog[48].server[0] congestionRatio 0
scalar FogNoLB.fog[48].server[0] totalJobs 582782
scalar FogNoLB.fog[48].server[0] droppedJobsQueue 27772
scalar FogNoLB.fog[48].server[0] droppedJobsTimout 0
scalar FogNoLB.fog[48].server[0] droppedJobsSLA 0
scalar FogNoLB.fog[48].server[0] droppedJobsTotal 27772
scalar FogNoLB.fog[49].dispatcher localJobs 582178
scalar FogNoLB.fog[49].dispatcher remoteJobs 0
scalar FogNoLB.fog[49].dispatcher probeQueries 0
scalar FogNoLB.fog[49].dispatcher probeAnswers 0
scalar FogNoLB.fog[49].dispatcher droppedJobsSLA 0
scalar FogNoLB.fog[49].dispatcher jobs_class_1 582178
scalar FogNoLB.fog[49].dispatcher localJobs_class_1 582178
scalar FogNoLB.fog[49].server[0] rho 0.85757631063461
scalar FogNoLB.fog[49].server[0] congestionRatio 0
scalar FogNoLB.fog[49].server[0] totalJobs 582178
scalar FogNoLB.fog[49].server[0] droppedJobsQueue 27567
scalar FogNoLB.fog[49].server[0] droppedJobsTimout 0
scalar FogNoLB.fog[49].server[0] droppedJobsSLA 0
scalar FogNoLB.fog[49].server[0] droppedJobsTotal 27567
scalar FogNoLB.fog[50].dispatcher localJobs 581406
scalar FogNoLB.fog[50].dispatcher remoteJobs 0
scalar FogNoLB.fog[50].dispatcher probeQueries 0
scalar FogNoLB.fog[50].dispatcher probeAnswers 0
scalar FogNoLB.fog[50].dispatcher droppedJobsSLA 0
scalar FogNoLB.fog[50].dispatcher jobs_class_1 581406
scalar FogNoLB.fog[50].dispatcher localJobs_class_1 581406
scalar FogNoLB.fog[50].server[0] rho 0.85636180639267
scalar FogNoLB.fog[50].server[0] congestionRatio 0
scalar FogNoLB.fog[50].server[0] totalJobs 581406
scalar FogNoLB.fog[50].server[0] droppedJobsQueue 27566
scalar FogNoLB.fog[50].server[0] droppedJobsTimout 0
scalar FogNoLB.fog[50].server[0] droppedJobsSLA 0
scalar FogNoLB.fog[50].server[0] droppedJobsTotal 27566
scalar FogNoLB.fog[51].dispatcher localJobs 582636
scalar FogNoLB.fog[51].dispatcher remoteJobs 0
scalar FogNoLB.fog[51].dispatcher probeQueries 0
scalar FogNoLB.fog[51].dispatcher probeAnswers 0
scalar FogNoLB.fog[51].dispatcher droppedJobsSLA 0
scalar FogNoLB.fog[51].dispatcher jobs_class_1 582636
scalar FogNoLB.fog[51].dispatcher localJobs_class_1 582636
scalar FogNoLB.fog[51].server[0] rho 0.85845220088959
scalar FogNoLB.fog[51].server[0] congestionRatio 0
scalar FogNoLB.fog[51].server[0] totalJobs 582636
scalar FogNoLB.fog[51].server[0] droppedJobsQueue 27463
scalar FogNoLB.fog[51].server[0] droppedJobsTimout 0
scalar FogNoLB.fog[51].server[0] droppedJobsSLA 0
scalar FogNoLB.fog[51].server[0] droppedJobsTotal 27463
scalar FogNoLB.fog[52].dispatcher localJobs 581970
scalar FogNoLB.fog[52].dispatcher remoteJobs 0
scalar FogNoLB.fog[52].dispatcher probeQueries 0
scalar FogNoLB.fog[52].dispatcher probeAnswers 0
scalar FogNoLB.fog[52].dispatcher droppedJobsSLA 0
scalar FogNoLB.fog[52].dispatcher jobs_class_1 581970
scalar FogNoLB.fog[52].dispatcher localJobs_class_1 581970
scalar FogNoLB.fog[52].server[0] rho 0.85727524757385
scalar FogNoLB.fog[52].server[0] congestionRatio 0
scalar FogNoLB.fog[52].server[0] totalJobs 581970
scalar FogNoLB.fog[52].server[0] droppedJobsQueue 27567
scalar FogNoLB.fog[52].server[0] droppedJobsTimout 0
scalar FogNoLB.fog[52].server[0] droppedJobsSLA 0
scalar FogNoLB.fog[52].server[0] droppedJobsTotal 27567
scalar FogNoLB.fog[53].dispatcher localJobs 581853
scalar FogNoLB.fog[53].dispatcher remoteJobs 0
scalar FogNoLB.fog[53].dispatcher probeQueries 0
scalar FogNoLB.fog[53].dispatcher probeAnswers 0
scalar FogNoLB.fog[53].dispatcher droppedJobsSLA 0
scalar FogNoLB.fog[53].dispatcher jobs_class_1 581853
scalar FogNoLB.fog[53].dispatcher localJobs_class_1 581853
scalar FogNoLB.fog[53].server[0] rho 0.85753405094147
scalar FogNoLB.fog[53].server[0] congestionRatio 0
scalar FogNoLB.fog[53].server[0] totalJobs 581853
scalar FogNoLB.fog[53].server[0] droppedJobsQueue 27295
scalar FogNoLB.fog[53].server[0] droppedJobsTimout 0
scalar FogNoLB.fog[53].server[0] droppedJobsSLA 0
scalar FogNoLB.fog[53].server[0] droppedJobsTotal 27295
scalar FogNoLB.fog[54].dispatcher localJobs 581773
scalar FogNoLB.fog[54].dispatcher remoteJobs 0
scalar FogNoLB.fog[54].dispatcher probeQueries 0
scalar FogNoLB.fog[54].dispatcher probeAnswers 0
scalar FogNoLB.fog[54].dispatcher droppedJobsSLA 0
scalar FogNoLB.fog[54].dispatcher jobs_class_1 581773
scalar FogNoLB.fog[54].dispatcher localJobs_class_1 581773
scalar FogNoLB.fog[54].server[0] rho 0.85747241973877
scalar FogNoLB.fog[54].server[0] congestionRatio 0
scalar FogNoLB.fog[54].server[0] totalJobs 581773
scalar FogNoLB.fog[54].server[0] droppedJobsQueue 27245
scalar FogNoLB.fog[54].server[0] droppedJobsTimout 0
scalar FogNoLB.fog[54].server[0] droppedJobsSLA 0
scalar FogNoLB.fog[54].server[0] droppedJobsTotal 27245
scalar FogNoLB.fog[55].dispatcher localJobs 582789
scalar FogNoLB.fog[55].dispatcher remoteJobs 0
scalar FogNoLB.fog[55].dispatcher probeQueries 0
scalar FogNoLB.fog[55].dispatcher probeAnswers 0
scalar FogNoLB.fog[55].dispatcher droppedJobsSLA 0
scalar FogNoLB.fog[55].dispatcher jobs_class_1 582789
scalar FogNoLB.fog[55].dispatcher localJobs_class_1 582789
scalar FogNoLB.fog[55].server[0] rho 0.8583932518959
scalar FogNoLB.fog[55].server[0] congestionRatio 0
scalar FogNoLB.fog[55].server[0] totalJobs 582789
scalar FogNoLB.fog[55].server[0] droppedJobsQueue 27669
scalar FogNoLB.fog[55].server[0] droppedJobsTimout 0
scalar FogNoLB.fog[55].server[0] droppedJobsSLA 0
scalar FogNoLB.fog[55].server[0] droppedJobsTotal 27669
scalar FogNoLB.fog[56].dispatcher localJobs 581000
scalar FogNoLB.fog[56].dispatcher remoteJobs 0
scalar FogNoLB.fog[56].dispatcher probeQueries 0
scalar FogNoLB.fog[56].dispatcher probeAnswers 0
scalar FogNoLB.fog[56].dispatcher droppedJobsSLA 0
scalar FogNoLB.fog[56].dispatcher jobs_class_1 581000
scalar FogNoLB.fog[56].dispatcher localJobs_class_1 581000
scalar FogNoLB.fog[56].server[0] rho 0.85619324445724
scalar FogNoLB.fog[56].server[0] congestionRatio 0
scalar FogNoLB.fog[56].server[0] totalJobs 581000
scalar FogNoLB.fog[56].server[0] droppedJobsQueue 27285
scalar FogNoLB.fog[56].server[0] droppedJobsTimout 0
scalar FogNoLB.fog[56].server[0] droppedJobsSLA 0
scalar FogNoLB.fog[56].server[0] droppedJobsTotal 27285
scalar FogNoLB.fog[57].dispatcher localJobs 582371
scalar FogNoLB.fog[57].dispatcher remoteJobs 0
scalar FogNoLB.fog[57].dispatcher probeQueries 0
scalar FogNoLB.fog[57].dispatcher probeAnswers 0
scalar FogNoLB.fog[57].dispatcher droppedJobsSLA 0
scalar FogNoLB.fog[57].dispatcher jobs_class_1 582371
scalar FogNoLB.fog[57].dispatcher localJobs_class_1 582371
scalar FogNoLB.fog[57].server[0] rho 0.85820555686951
scalar FogNoLB.fog[57].server[0] congestionRatio 0
scalar FogNoLB.fog[57].server[0] totalJobs 582371
scalar FogNoLB.fog[57].server[0] droppedJobsQueue 27372
scalar FogNoLB.fog[57].server[0] droppedJobsTimout 0
scalar FogNoLB.fog[57].server[0] droppedJobsSLA 0
scalar FogNoLB.fog[57].server[0] droppedJobsTotal 27372
scalar FogNoLB.fog[58].dispatcher localJobs 583026
scalar FogNoLB.fog[58].dispatcher remoteJobs 0
scalar FogNoLB.fog[58].dispatcher probeQueries 0
scalar FogNoLB.fog[58].dispatcher probeAnswers 0
scalar FogNoLB.fog[58].dispatcher droppedJobsSLA 0
scalar FogNoLB.fog[58].dispatcher jobs_class_1 583026
scalar FogNoLB.fog[58].dispatcher localJobs_class_1 583026
scalar FogNoLB.fog[58].server[0] rho 0.85905224084854
scalar FogNoLB.fog[58].server[0] congestionRatio 0
scalar FogNoLB.fog[58].server[0] totalJobs 583026
scalar FogNoLB.fog[58].server[0] droppedJobsQueue 27465
scalar FogNoLB.fog[58].server[0] droppedJobsTimout 0
scalar FogNoLB.fog[58].server[0] droppedJobsSLA 0
scalar FogNoLB.fog[58].server[0] droppedJobsTotal 27465
scalar FogNoLB.fog[59].dispatcher localJobs 581882
scalar FogNoLB.fog[59].dispatcher remoteJobs 0
scalar FogNoLB.fog[59].dispatcher probeQueries 0
scalar FogNoLB.fog[59].dispatcher probeAnswers 0
scalar FogNoLB.fog[59].dispatcher droppedJobsSLA 0
scalar FogNoLB.fog[59].dispatcher jobs_class_1 581882
scalar FogNoLB.fog[59].dispatcher localJobs_class_1 581882
scalar FogNoLB.fog[59].server[0] rho 0.85734301805496
scalar FogNoLB.fog[59].server[0] congestionRatio 0
scalar FogNoLB.fog[59].server[0] totalJobs 581882
scalar FogNoLB.fog[59].server[0] droppedJobsQueue 27415
scalar FogNoLB.fog[59].server[0] droppedJobsTimout 0
scalar FogNoLB.fog[59].server[0] droppedJobsSLA 0
scalar FogNoLB.fog[59].server[0] droppedJobsTotal 27415
scalar FogNoLB.fog[60].dispatcher localJobs 583259
scalar FogNoLB.fog[60].dispatcher remoteJobs 0
scalar FogNoLB.fog[60].dispatcher probeQueries 0
scalar FogNoLB.fog[60].dispatcher probeAnswers 0
scalar FogNoLB.fog[60].dispatcher droppedJobsSLA 0
scalar FogNoLB.fog[60].dispatcher jobs_class_1 583259
scalar FogNoLB.fog[60].dispatcher localJobs_class_1 583259
scalar FogNoLB.fog[60].server[0] rho 0.85907959938049
scalar FogNoLB.fog[60].server[0] congestionRatio 0
scalar FogNoLB.fog[60].server[0] totalJobs 583259
scalar FogNoLB.fog[60].server[0] droppedJobsQueue 27697
scalar FogNoLB.fog[60].server[0] droppedJobsTimout 0
scalar FogNoLB.fog[60].server[0] droppedJobsSLA 0
scalar FogNoLB.fog[60].server[0] droppedJobsTotal 27697
scalar FogNoLB.fog[61].dispatcher localJobs 582315
scalar FogNoLB.fog[61].dispatcher remoteJobs 0
scalar FogNoLB.fog[61].dispatcher probeQueries 0
scalar FogNoLB.fog[61].dispatcher probeAnswers 0
scalar FogNoLB.fog[61].dispatcher droppedJobsSLA 0
scalar FogNoLB.fog[61].dispatcher jobs_class_1 582315
scalar FogNoLB.fog[61].dispatcher localJobs_class_1 582315
scalar FogNoLB.fog[61].server[0] rho 0.85788893699646
scalar FogNoLB.fog[61].server[0] congestionRatio 0
scalar FogNoLB.fog[61].server[0] totalJobs 582315
scalar FogNoLB.fog[61].server[0] droppedJobsQueue 27498
scalar FogNoLB.fog[61].server[0] droppedJobsTimout 0
scalar FogNoLB.fog[61].server[0] droppedJobsSLA 0
scalar FogNoLB.fog[61].server[0] droppedJobsTotal 27498
scalar FogNoLB.fog[62].dispatcher localJobs 583266
scalar FogNoLB.fog[62].dispatcher remoteJobs 0
scalar FogNoLB.fog[62].dispatcher probeQueries 0
scalar FogNoLB.fog[62].dispatcher probeAnswers 0
scalar FogNoLB.fog[62].dispatcher droppedJobsSLA 0
scalar FogNoLB.fog[62].dispatcher jobs_class_1 583266
scalar FogNoLB.fog[62].dispatcher localJobs_class_1 583266
scalar FogNoLB.fog[62].server[0] rho 0.8579848408699
scalar FogNoLB.fog[62].server[0] congestionRatio 0
scalar FogNoLB.fog[62].server[0] totalJobs 583266
scalar FogNoLB.fog[62].server[0] droppedJobsQueue 28399
scalar FogNoLB.fog[62].server[0] droppedJobsTimout 0
scalar FogNoLB.fog[62].server[0] droppedJobsSLA 0
scalar FogNoLB.fog[62].server[0] droppedJobsTotal 28399
scalar FogNoLB.fog[63].dispatcher localJobs 581936
scalar FogNoLB.fog[63].dispatcher remoteJobs 0
scalar FogNoLB.fog[63].dispatcher probeQueries 0
scalar FogNoLB.fog[63].dispatcher probeAnswers 0
scalar FogNoLB.fog[63].dispatcher droppedJobsSLA 0
scalar FogNoLB.fog[63].dispatcher jobs_class_1 581936
scalar FogNoLB.fog[63].dispatcher localJobs_class_1 581936
scalar FogNoLB.fog[63].server[0] rho 0.85678595304489
scalar FogNoLB.fog[63].server[0] congestionRatio 0
scalar FogNoLB.fog[63].server[0] totalJobs 581936
scalar FogNoLB.fog[63].server[0] droppedJobsQueue 27833
scalar FogNoLB.fog[63].server[0] droppedJobsTimout 0
scalar FogNoLB.fog[63].server[0] droppedJobsSLA 0
scalar FogNoLB.fog[63].server[0] droppedJobsTotal 27833
scalar FogNoLB.fog[64].dispatcher localJobs 582166
scalar FogNoLB.fog[64].dispatcher remoteJobs 0
scalar FogNoLB.fog[64].dispatcher probeQueries 0
scalar FogNoLB.fog[64].dispatcher probeAnswers 0
scalar FogNoLB.fog[64].dispatcher droppedJobsSLA 0
scalar FogNoLB.fog[64].dispatcher jobs_class_1 582166
scalar FogNoLB.fog[64].dispatcher localJobs_class_1 582166
scalar FogNoLB.fog[64].server[0] rho 0.85694617033005
scalar FogNoLB.fog[64].server[0] congestionRatio 0
scalar FogNoLB.fog[64].server[0] totalJobs 582166
scalar FogNoLB.fog[64].server[0] droppedJobsQueue 27986
scalar FogNoLB.fog[64].server[0] droppedJobsTimout 0
scalar FogNoLB.fog[64].server[0] droppedJobsSLA 0
scalar FogNoLB.fog[64].server[0] droppedJobsTotal 27986
scalar FogNoLB.fog[65].dispatcher localJobs 581424
scalar FogNoLB.fog[65].dispatcher remoteJobs 0
scalar FogNoLB.fog[65].dispatcher probeQueries 0
scalar FogNoLB.fog[65].dispatcher probeAnswers 0
scalar FogNoLB.fog[65].dispatcher droppedJobsSLA 0
scalar FogNoLB.fog[65].dispatcher jobs_class_1 581424
scalar FogNoLB.fog[65].dispatcher localJobs_class_1 581424
scalar FogNoLB.fog[65].server[0] rho 0.85651808977127
scalar FogNoLB.fog[65].server[0] congestionRatio 0
scalar FogNoLB.fog[65].server[0] totalJobs 581424
scalar FogNoLB.fog[65].server[0] droppedJobsQueue 27504
scalar FogNoLB.fog[65].server[0] droppedJobsTimout 0
scalar FogNoLB.fog[65].server[0] droppedJobsSLA 0
scalar FogNoLB.fog[65].server[0] droppedJobsTotal 27504
scalar FogNoLB.fog[66].dispatcher localJobs 583138
scalar FogNoLB.fog[66].dispatcher remoteJobs 0
scalar FogNoLB.fog[66].dispatcher probeQueries 0
scalar FogNoLB.fog[66].dispatcher probeAnswers 0
scalar FogNoLB.fog[66].dispatcher droppedJobsSLA 0
scalar FogNoLB.fog[66].dispatcher jobs_class_1 583138
scalar FogNoLB.fog[66].dispatcher localJobs_class_1 583138
scalar FogNoLB.fog[66].server[0] rho 0.85863333940506
scalar FogNoLB.fog[66].server[0] congestionRatio 0
scalar FogNoLB.fog[66].server[0] totalJobs 583138
scalar FogNoLB.fog[66].server[0] droppedJobsQueue 27845
scalar FogNoLB.fog[66].server[0] droppedJobsTimout 0
scalar FogNoLB.fog[66].server[0] droppedJobsSLA 0
scalar FogNoLB.fog[66].server[0] droppedJobsTotal 27845
scalar FogNoLB.fog[67].dispatcher localJobs 582627
scalar FogNoLB.fog[67].dispatcher remoteJobs 0
scalar FogNoLB.fog[67].dispatcher probeQueries 0
scalar FogNoLB.fog[67].dispatcher probeAnswers 0
scalar FogNoLB.fog[67].dispatcher droppedJobsSLA 0
scalar FogNoLB.fog[67].dispatcher jobs_class_1 582627
scalar FogNoLB.fog[67].dispatcher localJobs_class_1 582627
scalar FogNoLB.fog[67].server[0] rho 0.85806375741959
scalar FogNoLB.fog[67].server[0] congestionRatio 0
scalar FogNoLB.fog[67].server[0] totalJobs 582627
scalar FogNoLB.fog[67].server[0] droppedJobsQueue 27703
scalar FogNoLB.fog[67].server[0] droppedJobsTimout 0
scalar FogNoLB.fog[67].server[0] droppedJobsSLA 0
scalar FogNoLB.fog[67].server[0] droppedJobsTotal 27703
scalar FogNoLB.fog[68].dispatcher localJobs 583301
scalar FogNoLB.fog[68].dispatcher remoteJobs 0
scalar FogNoLB.fog[68].dispatcher probeQueries 0
scalar FogNoLB.fog[68].dispatcher probeAnswers 0
scalar FogNoLB.fog[68].dispatcher droppedJobsSLA 0
scalar FogNoLB.fog[68].dispatcher jobs_class_1 583301
scalar FogNoLB.fog[68].dispatcher localJobs_class_1 583301
scalar FogNoLB.fog[68].server[0] rho 0.85866630077362
scalar FogNoLB.fog[68].server[0] congestionRatio 0
scalar FogNoLB.fog[68].server[0] totalJobs 583301
scalar FogNoLB.fog[68].server[0] droppedJobsQueue 27992
scalar FogNoLB.fog[68].server[0] droppedJobsTimout 0
scalar FogNoLB.fog[68].server[0] droppedJobsSLA 0
scalar FogNoLB.fog[68].server[0] droppedJobsTotal 27992
scalar FogNoLB.fog[69].dispatcher localJobs 582185
scalar FogNoLB.fog[69].dispatcher remoteJobs 0
scalar FogNoLB.fog[69].dispatcher probeQueries 0
scalar FogNoLB.fog[69].dispatcher probeAnswers 0
scalar FogNoLB.fog[69].dispatcher droppedJobsSLA 0
scalar FogNoLB.fog[69].dispatcher jobs_class_1 582185
scalar FogNoLB.fog[69].dispatcher localJobs_class_1 582185
scalar FogNoLB.fog[69].server[0] rho 0.85732007026672
scalar FogNoLB.fog[69].server[0] congestionRatio 0
scalar FogNoLB.fog[69].server[0] totalJobs 582185
scalar FogNoLB.fog[69].server[0] droppedJobsQueue 27732
scalar FogNoLB.fog[69].server[0] droppedJobsTimout 0
scalar FogNoLB.fog[69].server[0] droppedJobsSLA 0
scalar FogNoLB.fog[69].server[0] droppedJobsTotal 27732
scalar FogNoLB.fog[70].dispatcher localJobs 582795
scalar FogNoLB.fog[70].dispatcher remoteJobs 0
scalar FogNoLB.fog[70].dispatcher probeQueries 0
scalar FogNoLB.fog[70].dispatcher probeAnswers 0
scalar FogNoLB.fog[70].dispatcher droppedJobsSLA 0
scalar FogNoLB.fog[70].dispatcher jobs_class_1 582795
scalar FogNoLB.fog[70].dispatcher localJobs_class_1 582795
scalar FogNoLB.fog[70].server[0] rho 0.8587121963501
scalar FogNoLB.fog[70].server[0] congestionRatio 0
scalar FogNoLB.fog[70].server[0] totalJobs 582795
scalar FogNoLB.fog[70].server[0] droppedJobsQueue 27480
scalar FogNoLB.fog[70].server[0] droppedJobsTimout 0
scalar FogNoLB.fog[70].server[0] droppedJobsSLA 0
scalar FogNoLB.fog[70].server[0] droppedJobsTotal 27480
scalar FogNoLB.fog[71].dispatcher localJobs 582920
scalar FogNoLB.fog[71].dispatcher remoteJobs 0
scalar FogNoLB.fog[71].dispatcher probeQueries 0
scalar FogNoLB.fog[71].dispatcher probeAnswers 0
scalar FogNoLB.fog[71].dispatcher droppedJobsSLA 0
scalar FogNoLB.fog[71].dispatcher jobs_class_1 582920
scalar FogNoLB.fog[71].dispatcher localJobs_class_1 582920
scalar FogNoLB.fog[71].server[0] rho 0.85903710126877
scalar FogNoLB.fog[71].server[0] congestionRatio 0
scalar FogNoLB.fog[71].server[0] totalJobs 582920
scalar FogNoLB.fog[71].server[0] droppedJobsQueue 27385
scalar FogNoLB.fog[71].server[0] droppedJobsTimout 0
scalar FogNoLB.fog[71].server[0] droppedJobsSLA 0
scalar FogNoLB.fog[71].server[0] droppedJobsTotal 27385
scalar FogNoLB.fog[72].dispatcher localJobs 581350
scalar FogNoLB.fog[72].dispatcher remoteJobs 0
scalar FogNoLB.fog[72].dispatcher probeQueries 0
scalar FogNoLB.fog[72].dispatcher probeAnswers 0
scalar FogNoLB.fog[72].dispatcher droppedJobsSLA 0
scalar FogNoLB.fog[72].dispatcher jobs_class_1 581350
scalar FogNoLB.fog[72].dispatcher localJobs_class_1 581350
scalar FogNoLB.fog[72].server[0] rho 0.85651904344559
scalar FogNoLB.fog[72].server[0] congestionRatio 0
scalar FogNoLB.fog[72].server[0] totalJobs 581350
scalar FogNoLB.fog[72].server[0] droppedJobsQueue 27426
scalar FogNoLB.fog[72].server[0] droppedJobsTimout 0
scalar FogNoLB.fog[72].server[0] droppedJobsSLA 0
scalar FogNoLB.fog[72].server[0] droppedJobsTotal 27426
scalar FogNoLB.fog[73].dispatcher localJobs 581801
scalar FogNoLB.fog[73].dispatcher remoteJobs 0
scalar FogNoLB.fog[73].dispatcher probeQueries 0
scalar FogNoLB.fog[73].dispatcher probeAnswers 0
scalar FogNoLB.fog[73].dispatcher droppedJobsSLA 0
scalar FogNoLB.fog[73].dispatcher jobs_class_1 581801
scalar FogNoLB.fog[73].dispatcher localJobs_class_1 581801
scalar FogNoLB.fog[73].server[0] rho 0.85777318477631
scalar FogNoLB.fog[73].server[0] congestionRatio 0
scalar FogNoLB.fog[73].server[0] totalJobs 581801
scalar FogNoLB.fog[73].server[0] droppedJobsQueue 27085
scalar FogNoLB.fog[73].server[0] droppedJobsTimout 0
scalar FogNoLB.fog[73].server[0] droppedJobsSLA 0
scalar FogNoLB.fog[73].server[0] droppedJobsTotal 27085
scalar FogNoLB.fog[74].dispatcher localJobs 583587
scalar FogNoLB.fog[74].dispatcher remoteJobs 0
scalar FogNoLB.fog[74].dispatcher probeQueries 0
scalar FogNoLB.fog[74].dispatcher probeAnswers 0
scalar FogNoLB.fog[74].dispatcher droppedJobsSLA 0
scalar FogNoLB.fog[74].dispatcher jobs_class_1 583587
scalar FogNoLB.fog[74].dispatcher localJobs_class_1 583587
scalar FogNoLB.fog[74].server[0] rho 0.85868680477142
scalar FogNoLB.fog[74].server[0] congestionRatio 0
scalar FogNoLB.fog[74].server[0] totalJobs 583587
scalar FogNoLB.fog[74].server[0] droppedJobsQueue 28284
scalar FogNoLB.fog[74].server[0] droppedJobsTimout 0
scalar FogNoLB.fog[74].server[0] droppedJobsSLA 0
scalar FogNoLB.fog[74].server[0] droppedJobsTotal 28284
scalar FogNoLB.fog[75].dispatcher localJobs 582207
scalar FogNoLB.fog[75].dispatcher remoteJobs 0
scalar FogNoLB.fog[75].dispatcher probeQueries 0
scalar FogNoLB.fog[75].dispatcher probeAnswers 0
scalar FogNoLB.fog[75].dispatcher droppedJobsSLA 0
scalar FogNoLB.fog[75].dispatcher jobs_class_1 582207
scalar FogNoLB.fog[75].dispatcher localJobs_class_1 582207
scalar FogNoLB.fog[75].server[0] rho 0.85786545276642
scalar FogNoLB.fog[75].server[0] congestionRatio 0
scalar FogNoLB.fog[75].server[0] totalJobs 582207
scalar FogNoLB.fog[75].server[0] droppedJobsQueue 27426
scalar FogNoLB.fog[75].server[0] droppedJobsTimout 0
scalar FogNoLB.fog[75].server[0] droppedJobsSLA 0
scalar FogNoLB.fog[75].server[0] droppedJobsTotal 27426
scalar FogNoLB.fog[76].dispatcher localJobs 582046
scalar FogNoLB.fog[76].dispatcher remoteJobs 0
scalar FogNoLB.fog[76].dispatcher probeQueries 0
scalar FogNoLB.fog[76].dispatcher probeAnswers 0
scalar FogNoLB.fog[76].dispatcher droppedJobsSLA 0
scalar FogNoLB.fog[76].dispatcher jobs_class_1 582046
scalar FogNoLB.fog[76].dispatcher localJobs_class_1 582046
scalar FogNoLB.fog[76].server[0] rho 0.85814422369003
scalar FogNoLB.fog[76].server[0] congestionRatio 0
scalar FogNoLB.fog[76].server[0] totalJobs 582046
scalar FogNoLB.fog[76].server[0] droppedJobsQueue 27091
scalar FogNoLB.fog[76].server[0] droppedJobsTimout 0
scalar FogNoLB.fog[76].server[0] droppedJobsSLA 0
scalar FogNoLB.fog[76].server[0] droppedJobsTotal 27091
scalar FogNoLB.fog[77].dispatcher localJobs 581824
scalar FogNoLB.fog[77].dispatcher remoteJobs 0
scalar FogNoLB.fog[77].dispatcher probeQueries 0
scalar FogNoLB.fog[77].dispatcher probeAnswers 0
scalar FogNoLB.fog[77].dispatcher droppedJobsSLA 0
scalar FogNoLB.fog[77].dispatcher jobs_class_1 581824
scalar FogNoLB.fog[77].dispatcher localJobs_class_1 581824
scalar FogNoLB.fog[77].server[0] rho 0.85674178600311
scalar FogNoLB.fog[77].server[0] congestionRatio 0
scalar FogNoLB.fog[77].server[0] totalJobs 581824
scalar FogNoLB.fog[77].server[0] droppedJobsQueue 27746
scalar FogNoLB.fog[77].server[0] droppedJobsTimout 0
scalar FogNoLB.fog[77].server[0] droppedJobsSLA 0
scalar FogNoLB.fog[77].server[0] droppedJobsTotal 27746
scalar FogNoLB.fog[78].dispatcher localJobs 582425
scalar FogNoLB.fog[78].dispatcher remoteJobs 0
scalar FogNoLB.fog[78].dispatcher probeQueries 0
scalar FogNoLB.fog[78].dispatcher probeAnswers 0
scalar FogNoLB.fog[78].dispatcher droppedJobsSLA 0
scalar FogNoLB.fog[78].dispatcher jobs_class_1 582425
scalar FogNoLB.fog[78].dispatcher localJobs_class_1 582425
scalar FogNoLB.fog[78].server[0] rho 0.85846197605133
scalar FogNoLB.fog[78].server[0] congestionRatio 0
scalar FogNoLB.fog[78].server[0] totalJobs 582425
scalar FogNoLB.fog[78].server[0] droppedJobsQueue 27240
scalar FogNoLB.fog[78].server[0] droppedJobsTimout 0
scalar FogNoLB.fog[78].server[0] droppedJobsSLA 0
scalar FogNoLB.fog[78].server[0] droppedJobsTotal 27240
scalar FogNoLB.fog[79].dispatcher localJobs 582607
scalar FogNoLB.fog[79].dispatcher remoteJobs 0
scalar FogNoLB.fog[79].dispatcher probeQueries 0
scalar FogNoLB.fog[79].dispatcher probeAnswers 0
scalar FogNoLB.fog[79].dispatcher droppedJobsSLA 0
scalar FogNoLB.fog[79].dispatcher jobs_class_1 582607
scalar FogNoLB.fog[79].dispatcher localJobs_class_1 582607
scalar FogNoLB.fog[79].server[0] rho 0.85796290636063
scalar FogNoLB.fog[79].server[0] congestionRatio 0
scalar FogNoLB.fog[79].server[0] totalJobs 582607
scalar FogNoLB.fog[79].server[0] droppedJobsQueue 27768
scalar FogNoLB.fog[79].server[0] droppedJobsTimout 0
scalar FogNoLB.fog[79].server[0] droppedJobsSLA 0
scalar FogNoLB.fog[79].server[0] droppedJobsTotal 27768
scalar FogNoLB.fog[80].dispatcher localJobs 582230
scalar FogNoLB.fog[80].dispatcher remoteJobs 0
scalar FogNoLB.fog[80].dispatcher probeQueries 0
scalar FogNoLB.fog[80].dispatcher probeAnswers 0
scalar FogNoLB.fog[80].dispatcher droppedJobsSLA 0
scalar FogNoLB.fog[80].dispatcher jobs_class_1 582230
scalar FogNoLB.fog[80].dispatcher localJobs_class_1 582230
scalar FogNoLB.fog[80].server[0] rho 0.85717684030533
scalar FogNoLB.fog[80].server[0] congestionRatio 0
scalar FogNoLB.fog[80].server[0] totalJobs 582230
scalar FogNoLB.fog[80].server[0] droppedJobsQueue 27880
scalar FogNoLB.fog[80].server[0] droppedJobsTimout 0
scalar FogNoLB.fog[80].server[0] droppedJobsSLA 0
scalar FogNoLB.fog[80].server[0] droppedJobsTotal 27880
scalar FogNoLB.fog[81].dispatcher localJobs 581742
scalar FogNoLB.fog[81].dispatcher remoteJobs 0
scalar FogNoLB.fog[81].dispatcher probeQueries 0
scalar FogNoLB.fog[81].dispatcher probeAnswers 0
scalar FogNoLB.fog[81].dispatcher droppedJobsSLA 0
scalar FogNoLB.fog[81].dispatcher jobs_class_1 581742
scalar FogNoLB.fog[81].dispatcher localJobs_class_1 581742
scalar FogNoLB.fog[81].server[0] rho 0.85692697763443
scalar FogNoLB.fog[81].server[0] congestionRatio 0
scalar FogNoLB.fog[81].server[0] totalJobs 581742
scalar FogNoLB.fog[81].server[0] droppedJobsQueue 27570
scalar FogNoLB.fog[81].server[0] droppedJobsTimout 0
scalar FogNoLB.fog[81].server[0] droppedJobsSLA 0
scalar FogNoLB.fog[81].server[0] droppedJobsTotal 27570
scalar FogNoLB.fog[82].dispatcher localJobs 581862
scalar FogNoLB.fog[82].dispatcher remoteJobs 0
scalar FogNoLB.fog[82].dispatcher probeQueries 0
scalar FogNoLB.fog[82].dispatcher probeAnswers 0
scalar FogNoLB.fog[82].dispatcher droppedJobsSLA 0
scalar FogNoLB.fog[82].dispatcher jobs_class_1 581862
scalar FogNoLB.fog[82].dispatcher localJobs_class_1 581862
scalar FogNoLB.fog[82].server[0] rho 0.85763782262802
scalar FogNoLB.fog[82].server[0] congestionRatio 0
scalar FogNoLB.fog[82].server[0] totalJobs 581862
scalar FogNoLB.fog[82].server[0] droppedJobsQueue 27232
scalar FogNoLB.fog[82].server[0] droppedJobsTimout 0
scalar FogNoLB.fog[82].server[0] droppedJobsSLA 0
scalar FogNoLB.fog[82].server[0] droppedJobsTotal 27232
scalar FogNoLB.fog[83].dispatcher localJobs 582196
scalar FogNoLB.fog[83].dispatcher remoteJobs 0
scalar FogNoLB.fog[83].dispatcher probeQueries 0
scalar FogNoLB.fog[83].dispatcher probeAnswers 0
scalar FogNoLB.fog[83].dispatcher droppedJobsSLA 0
scalar FogNoLB.fog[83].dispatcher jobs_class_1 582196
scalar FogNoLB.fog[83].dispatcher localJobs_class_1 582196
scalar FogNoLB.fog[83].server[0] rho 0.85767215490341
scalar FogNoLB.fog[83].server[0] congestionRatio 0
scalar FogNoLB.fog[83].server[0] totalJobs 582196
scalar FogNoLB.fog[83].server[0] droppedJobsQueue 27544
scalar FogNoLB.fog[83].server[0] droppedJobsTimout 0
scalar FogNoLB.fog[83].server[0] droppedJobsSLA 0
scalar FogNoLB.fog[83].server[0] droppedJobsTotal 27544
scalar FogNoLB.fog[84].dispatcher localJobs 581055
scalar FogNoLB.fog[84].dispatcher remoteJobs 0
scalar FogNoLB.fog[84].dispatcher probeQueries 0
scalar FogNoLB.fog[84].dispatcher probeAnswers 0
scalar FogNoLB.fog[84].dispatcher droppedJobsSLA 0
scalar FogNoLB.fog[84].dispatcher jobs_class_1 581055
scalar FogNoLB.fog[84].dispatcher localJobs_class_1 581055
scalar FogNoLB.fog[84].server[0] rho 0.85623896121979
scalar FogNoLB.fog[84].server[0] congestionRatio 0
scalar FogNoLB.fog[84].server[0] totalJobs 581055
scalar FogNoLB.fog[84].server[0] droppedJobsQueue 27317
scalar FogNoLB.fog[84].server[0] droppedJobsTimout 0
scalar FogNoLB.fog[84].server[0] droppedJobsSLA 0
scalar FogNoLB.fog[84].server[0] droppedJobsTotal 27317
scalar FogNoLB.fog[85].dispatcher localJobs 581346
scalar FogNoLB.fog[85].dispatcher remoteJobs 0
scalar FogNoLB.fog[85].dispatcher probeQueries 0
scalar FogNoLB.fog[85].dispatcher probeAnswers 0
scalar FogNoLB.fog[85].dispatcher droppedJobsSLA 0
scalar FogNoLB.fog[85].dispatcher jobs_class_1 581346
scalar FogNoLB.fog[85].dispatcher localJobs_class_1 581346
scalar FogNoLB.fog[85].server[0] rho 0.8565382361412
scalar FogNoLB.fog[85].server[0] congestionRatio 0
scalar FogNoLB.fog[85].server[0] totalJobs 581346
scalar FogNoLB.fog[85].server[0] droppedJobsQueue 27437
scalar FogNoLB.fog[85].server[0] droppedJobsTimout 0
scalar FogNoLB.fog[85].server[0] droppedJobsSLA 0
scalar FogNoLB.fog[85].server[0] droppedJobsTotal 27437
scalar FogNoLB.fog[86].dispatcher localJobs 582642
scalar FogNoLB.fog[86].dispatcher remoteJobs 0
scalar FogNoLB.fog[86].dispatcher probeQueries 0
scalar FogNoLB.fog[86].dispatcher probeAnswers 0
scalar FogNoLB.fog[86].dispatcher droppedJobsSLA 0
scalar FogNoLB.fog[86].dispatcher jobs_class_1 582642
scalar FogNoLB.fog[86].dispatcher localJobs_class_1 582642
scalar FogNoLB.fog[86].server[0] rho 0.85757631063461
scalar FogNoLB.fog[86].server[0] congestionRatio 0
scalar FogNoLB.fog[86].server[0] totalJobs 582642
scalar FogNoLB.fog[86].server[0] droppedJobsQueue 28048
scalar FogNoLB.fog[86].server[0] droppedJobsTimout 0
scalar FogNoLB.fog[86].server[0] droppedJobsSLA 0
scalar FogNoLB.fog[86].server[0] droppedJobsTotal 28048
scalar FogNoLB.fog[87].dispatcher localJobs 582266
scalar FogNoLB.fog[87].dispatcher remoteJobs 0
scalar FogNoLB.fog[87].dispatcher probeQueries 0
scalar FogNoLB.fog[87].dispatcher probeAnswers 0
scalar FogNoLB.fog[87].dispatcher droppedJobsSLA 0
scalar FogNoLB.fog[87].dispatcher jobs_class_1 582266
scalar FogNoLB.fog[87].dispatcher localJobs_class_1 582266
scalar FogNoLB.fog[87].server[0] rho 0.85780519247055
scalar FogNoLB.fog[87].server[0] congestionRatio 0
scalar FogNoLB.fog[87].server[0] totalJobs 582266
scalar FogNoLB.fog[87].server[0] droppedJobsQueue 27516
scalar FogNoLB.fog[87].server[0] droppedJobsTimout 0
scalar FogNoLB.fog[87].server[0] droppedJobsSLA 0
scalar FogNoLB.fog[87].server[0] droppedJobsTotal 27516
scalar FogNoLB.fog[88].dispatcher localJobs 581409
scalar FogNoLB.fog[88].dispatcher remoteJobs 0
scalar FogNoLB.fog[88].dispatcher probeQueries 0
scalar FogNoLB.fog[88].dispatcher probeAnswers 0
scalar FogNoLB.fog[88].dispatcher droppedJobsSLA 0
scalar FogNoLB.fog[88].dispatcher jobs_class_1 581409
scalar FogNoLB.fog[88].dispatcher localJobs_class_1 581409
scalar FogNoLB.fog[88].server[0] rho 0.85688763856888
scalar FogNoLB.fog[88].server[0] congestionRatio 0
scalar FogNoLB.fog[88].server[0] totalJobs 581409
scalar FogNoLB.fog[88].server[0] droppedJobsQueue 27261
scalar FogNoLB.fog[88].server[0] droppedJobsTimout 0
scalar FogNoLB.fog[88].server[0] droppedJobsSLA 0
scalar FogNoLB.fog[88].server[0] droppedJobsTotal 27261
scalar FogNoLB.fog[89].dispatcher localJobs 580792
scalar FogNoLB.fog[89].dispatcher remoteJobs 0
scalar FogNoLB.fog[89].dispatcher probeQueries 0
scalar FogNoLB.fog[89].dispatcher probeAnswers 0
scalar FogNoLB.fog[89].dispatcher droppedJobsSLA 0
scalar FogNoLB.fog[89].dispatcher jobs_class_1 580792
scalar FogNoLB.fog[89].dispatcher localJobs_class_1 580792
scalar FogNoLB.fog[89].server[0] rho 0.85564202070236
scalar FogNoLB.fog[89].server[0] congestionRatio 0
scalar FogNoLB.fog[89].server[0] totalJobs 580792
scalar FogNoLB.fog[89].server[0] droppedJobsQueue 27454
scalar FogNoLB.fog[89].server[0] droppedJobsTimout 0
scalar FogNoLB.fog[89].server[0] droppedJobsSLA 0
scalar FogNoLB.fog[89].server[0] droppedJobsTotal 27454
scalar FogNoLB.fog[90].dispatcher localJobs 583173
scalar FogNoLB.fog[90].dispatcher remoteJobs 0
scalar FogNoLB.fog[90].dispatcher probeQueries 0
scalar FogNoLB.fog[90].dispatcher probeAnswers 0
scalar FogNoLB.fog[90].dispatcher droppedJobsSLA 0
scalar FogNoLB.fog[90].dispatcher jobs_class_1 583173
scalar FogNoLB.fog[90].dispatcher localJobs_class_1 583173
scalar FogNoLB.fog[90].server[0] rho 0.85917431116104
scalar FogNoLB.fog[90].server[0] congestionRatio 0
scalar FogNoLB.fog[90].server[0] totalJobs 583173
scalar FogNoLB.fog[90].server[0] droppedJobsQueue 27541
scalar FogNoLB.fog[90].server[0] droppedJobsTimout 0
scalar FogNoLB.fog[90].server[0] droppedJobsSLA 0
scalar FogNoLB.fog[90].server[0] droppedJobsTotal 27541
scalar FogNoLB.fog[91].dispatcher localJobs 582680
scalar FogNoLB.fog[91].dispatcher remoteJobs 0
scalar FogNoLB.fog[91].dispatcher probeQueries 0
scalar FogNoLB.fog[91].dispatcher probeAnswers 0
scalar FogNoLB.fog[91].dispatcher droppedJobsSLA 0
scalar FogNoLB.fog[91].dispatcher jobs_class_1 582680
scalar FogNoLB.fog[91].dispatcher localJobs_class_1 582680
scalar FogNoLB.fog[91].server[0] rho 0.85767698287964
scalar FogNoLB.fog[91].server[0] congestionRatio 0
scalar FogNoLB.fog[91].server[0] totalJobs 582680
scalar FogNoLB.fog[91].server[0] droppedJobsQueue 28012
scalar FogNoLB.fog[91].server[0] droppedJobsTimout 0
scalar FogNoLB.fog[91].server[0] droppedJobsSLA 0
scalar FogNoLB.fog[91].server[0] droppedJobsTotal 28012
scalar FogNoLB.fog[92].dispatcher localJobs 581290
scalar FogNoLB.fog[92].dispatcher remoteJobs 0
scalar FogNoLB.fog[92].dispatcher probeQueries 0
scalar FogNoLB.fog[92].dispatcher probeAnswers 0
scalar FogNoLB.fog[92].dispatcher droppedJobsSLA 0
scalar FogNoLB.fog[92].dispatcher jobs_class_1 581290
scalar FogNoLB.fog[92].dispatcher localJobs_class_1 581290
scalar FogNoLB.fog[92].server[0] rho 0.85648673772812
scalar FogNoLB.fog[92].server[0] congestionRatio 0
scalar FogNoLB.fog[92].server[0] totalJobs 581290
scalar FogNoLB.fog[92].server[0] droppedJobsQueue 27410
scalar FogNoLB.fog[92].server[0] droppedJobsTimout 0
scalar FogNoLB.fog[92].server[0] droppedJobsSLA 0
scalar FogNoLB.fog[92].server[0] droppedJobsTotal 27410
scalar FogNoLB.fog[93].dispatcher localJobs 581994
scalar FogNoLB.fog[93].dispatcher remoteJobs 0
scalar FogNoLB.fog[93].dispatcher probeQueries 0
scalar FogNoLB.fog[93].dispatcher probeAnswers 0
scalar FogNoLB.fog[93].dispatcher droppedJobsSLA 0
scalar FogNoLB.fog[93].dispatcher jobs_class_1 581994
scalar FogNoLB.fog[93].dispatcher localJobs_class_1 581994
scalar FogNoLB.fog[93].server[0] rho 0.85797548294067
scalar FogNoLB.fog[93].server[0] congestionRatio 0
scalar FogNoLB.fog[93].server[0] totalJobs 581994
scalar FogNoLB.fog[93].server[0] droppedJobsQueue 27149
scalar FogNoLB.fog[93].server[0] droppedJobsTimout 0
scalar FogNoLB.fog[93].server[0] droppedJobsSLA 0
scalar FogNoLB.fog[93].server[0] droppedJobsTotal 27149
scalar FogNoLB.fog[94].dispatcher localJobs 583074
scalar FogNoLB.fog[94].dispatcher remoteJobs 0
scalar FogNoLB.fog[94].dispatcher probeQueries 0
scalar FogNoLB.fog[94].dispatcher probeAnswers 0
scalar FogNoLB.fog[94].dispatcher droppedJobsSLA 0
scalar FogNoLB.fog[94].dispatcher jobs_class_1 583074
scalar FogNoLB.fog[94].dispatcher localJobs_class_1 583074
scalar FogNoLB.fog[94].server[0] rho 0.85869115591049
scalar FogNoLB.fog[94].server[0] congestionRatio 0
scalar FogNoLB.fog[94].server[0] totalJobs 583074
scalar FogNoLB.fog[94].server[0] droppedJobsQueue 27730
scalar FogNoLB.fog[94].server[0] droppedJobsTimout 0
scalar FogNoLB.fog[94].server[0] droppedJobsSLA 0
scalar FogNoLB.fog[94].server[0] droppedJobsTotal 27730
scalar FogNoLB.fog[95].dispatcher localJobs 580664
scalar FogNoLB.fog[95].dispatcher remoteJobs 0
scalar FogNoLB.fog[95].dispatcher probeQueries 0
scalar FogNoLB.fog[95].dispatcher probeAnswers 0
scalar FogNoLB.fog[95].dispatcher droppedJobsSLA 0
scalar FogNoLB.fog[95].dispatcher jobs_class_1 580664
scalar FogNoLB.fog[95].dispatcher localJobs_class_1 580664
scalar FogNoLB.fog[95].server[0] rho 0.85629498958588
scalar FogNoLB.fog[95].server[0] congestionRatio 0
scalar FogNoLB.fog[95].server[0] totalJobs 580664
scalar FogNoLB.fog[95].server[0] droppedJobsQueue 26902
scalar FogNoLB.fog[95].server[0] droppedJobsTimout 0
scalar FogNoLB.fog[95].server[0] droppedJobsSLA 0
scalar FogNoLB.fog[95].server[0] droppedJobsTotal 26902
scalar FogNoLB.fog[96].dispatcher localJobs 582661
scalar FogNoLB.fog[96].dispatcher remoteJobs 0
scalar FogNoLB.fog[96].dispatcher probeQueries 0
scalar FogNoLB.fog[96].dispatcher probeAnswers 0
scalar FogNoLB.fog[96].dispatcher droppedJobsSLA 0
scalar FogNoLB.fog[96].dispatcher jobs_class_1 582661
scalar FogNoLB.fog[96].dispatcher localJobs_class_1 582661
scalar FogNoLB.fog[96].server[0] rho 0.85862350463867
scalar FogNoLB.fog[96].server[0] congestionRatio 0
scalar FogNoLB.fog[96].server[0] totalJobs 582661
scalar FogNoLB.fog[96].server[0] droppedJobsQueue 27377
scalar FogNoLB.fog[96].server[0] droppedJobsTimout 0
scalar FogNoLB.fog[96].server[0] droppedJobsSLA 0
scalar FogNoLB.fog[96].server[0] droppedJobsTotal 27377
scalar FogNoLB.fog[97].dispatcher localJobs 582039
scalar FogNoLB.fog[97].dispatcher remoteJobs 0
scalar FogNoLB.fog[97].dispatcher probeQueries 0
scalar FogNoLB.fog[97].dispatcher probeAnswers 0
scalar FogNoLB.fog[97].dispatcher droppedJobsSLA 0
scalar FogNoLB.fog[97].dispatcher jobs_class_1 582039
scalar FogNoLB.fog[97].dispatcher localJobs_class_1 582039
scalar FogNoLB.fog[97].server[0] rho 0.857590675354
scalar FogNoLB.fog[97].server[0] congestionRatio 0
scalar FogNoLB.fog[97].server[0] totalJobs 582039
scalar FogNoLB.fog[97].server[0] droppedJobsQueue 27446
scalar FogNoLB.fog[97].server[0] droppedJobsTimout 0
scalar FogNoLB.fog[97].server[0] droppedJobsSLA 0
scalar FogNoLB.fog[97].server[0] droppedJobsTotal 27446
scalar FogNoLB.fog[98].dispatcher localJobs 581933
scalar FogNoLB.fog[98].dispatcher remoteJobs 0
scalar FogNoLB.fog[98].dispatcher probeQueries 0
scalar FogNoLB.fog[98].dispatcher probeAnswers 0
scalar FogNoLB.fog[98].dispatcher droppedJobsSLA 0
scalar FogNoLB.fog[98].dispatcher jobs_class_1 581933
scalar FogNoLB.fog[98].dispatcher localJobs_class_1 581933
scalar FogNoLB.fog[98].server[0] rho 0.85748291015625
scalar FogNoLB.fog[98].server[0] congestionRatio 0
scalar FogNoLB.fog[98].server[0] totalJobs 581933
scalar FogNoLB.fog[98].server[0] droppedJobsQueue 27389
scalar FogNoLB.fog[98].server[0] droppedJobsTimout 0
scalar FogNoLB.fog[98].server[0] droppedJobsSLA 0
scalar FogNoLB.fog[98].server[0] droppedJobsTotal 27389
scalar FogNoLB.fog[99].dispatcher localJobs 580892
scalar FogNoLB.fog[99].dispatcher remoteJobs 0
scalar FogNoLB.fog[99].dispatcher probeQueries 0
scalar FogNoLB.fog[99].dispatcher probeAnswers 0
scalar FogNoLB.fog[99].dispatcher droppedJobsSLA 0
scalar FogNoLB.fog[99].dispatcher jobs_class_1 580892
scalar FogNoLB.fog[99].dispatcher localJobs_class_1 580892
scalar FogNoLB.fog[99].server[0] rho 0.85642427206039
scalar FogNoLB.fog[99].server[0] congestionRatio 0
scalar FogNoLB.fog[99].server[0] totalJobs 580892
scalar FogNoLB.fog[99].server[0] droppedJobsQueue 27017
scalar FogNoLB.fog[99].server[0] droppedJobsTimout 0
scalar FogNoLB.fog[99].server[0] droppedJobsSLA 0
scalar FogNoLB.fog[99].server[0] droppedJobsTotal 27017
scalar FogNoLB.sink avg_responseTime_1 0.047777393905697
scalar FogNoLB.sink p90_responseTime_1 0.014838519602
scalar FogNoLB.sink med_responseTime_1 0.014838519602
scalar FogNoLB.sink avg_delayTime_1 0
scalar FogNoLB.sink p90_delayTime_1 0
scalar FogNoLB.sink med_delayTime_1 0
scalar FogNoLB.sink avg_queuingTime_1 0.031077401217581
scalar FogNoLB.sink p90_queuingTime_1 0
scalar FogNoLB.sink med_queuingTime_1 0
scalar FogNoLB.sink avg_serviceTime_1 0.016699992688107
scalar FogNoLB.sink p90_serviceTime_1 0.014638923562
scalar FogNoLB.sink med_serviceTime_1 0.014638923562
scalar FogNoLB.sink avg_balancerTime_1 0
scalar FogNoLB.sink p90_balancerTime_1 0
scalar FogNoLB.sink med_balancerTime_1 0
scalar FogNoLB.sink avg_balancerCount_1 1
scalar FogNoLB.sink p90_balancerCount_1 1
scalar FogNoLB.sink med_balancerCount_1 1

