version 2
run Fog-mul_001-rho_09-thr_1-4-20190711-20:32:05-55992
attr configname Fog-mul_001-rho_09-thr_1
attr datetime 20190711-20:32:05
attr experiment Fog-mul_001-rho_09-thr_1
attr inifile FogQueueLen.ini
attr iterationvars ""
attr iterationvarsf ""
attr measurement ""
attr network FogNoLB
attr processid 55992
attr repetition 4
attr replication #4
attr resultdir results
attr runnumber 4
attr seedset 4
param FogNoLB.proctimeMul 0.01
param FogNoLB.rho 0.9
param FogNoLB.fog[*].server[*].capacity 1
param FogNoLB.nSources 100
param FogNoLB.rho 0.9
param FogNoLB.proctimeMul 1.0
param FogNoLB.source[*].appId 1
param FogNoLB.fog[*].nServers 1
param FogNoLB.fog[*].dispatcher.fanOut 1
param FogNoLB.fog[*].server[*].timeSlice -1s
param FogNoLB.fog[*].server[*].capacity 5
param FogNoLB.fog[*].server[*].fifo true
param FogNoLB.fog[*].server[*].maxServiceTime -1s

scalar FogNoLB.fog[0].dispatcher localJobs 582527
scalar FogNoLB.fog[0].dispatcher remoteJobs 0
scalar FogNoLB.fog[0].dispatcher probeQueries 0
scalar FogNoLB.fog[0].dispatcher probeAnswers 0
scalar FogNoLB.fog[0].dispatcher droppedJobsSLA 0
scalar FogNoLB.fog[0].dispatcher jobs_class_1 582527
scalar FogNoLB.fog[0].dispatcher localJobs_class_1 582527
scalar FogNoLB.fog[0].server[0] rho 0.68933260440826
scalar FogNoLB.fog[0].server[0] congestionRatio 0
scalar FogNoLB.fog[0].server[0] totalJobs 582527
scalar FogNoLB.fog[0].server[0] droppedJobsQueue 136736
scalar FogNoLB.fog[0].server[0] droppedJobsTimout 0
scalar FogNoLB.fog[0].server[0] droppedJobsSLA 0
scalar FogNoLB.fog[0].server[0] droppedJobsTotal 136736
scalar FogNoLB.fog[1].dispatcher localJobs 582228
scalar FogNoLB.fog[1].dispatcher remoteJobs 0
scalar FogNoLB.fog[1].dispatcher probeQueries 0
scalar FogNoLB.fog[1].dispatcher probeAnswers 0
scalar FogNoLB.fog[1].dispatcher droppedJobsSLA 0
scalar FogNoLB.fog[1].dispatcher jobs_class_1 582228
scalar FogNoLB.fog[1].dispatcher localJobs_class_1 582228
scalar FogNoLB.fog[1].server[0] rho 0.68915957212448
scalar FogNoLB.fog[1].server[0] congestionRatio 0
scalar FogNoLB.fog[1].server[0] totalJobs 582228
scalar FogNoLB.fog[1].server[0] droppedJobsQueue 136560
scalar FogNoLB.fog[1].server[0] droppedJobsTimout 0
scalar FogNoLB.fog[1].server[0] droppedJobsSLA 0
scalar FogNoLB.fog[1].server[0] droppedJobsTotal 136560
scalar FogNoLB.fog[2].dispatcher localJobs 580837
scalar FogNoLB.fog[2].dispatcher remoteJobs 0
scalar FogNoLB.fog[2].dispatcher probeQueries 0
scalar FogNoLB.fog[2].dispatcher probeAnswers 0
scalar FogNoLB.fog[2].dispatcher droppedJobsSLA 0
scalar FogNoLB.fog[2].dispatcher jobs_class_1 580837
scalar FogNoLB.fog[2].dispatcher localJobs_class_1 580837
scalar FogNoLB.fog[2].server[0] rho 0.68760293722153
scalar FogNoLB.fog[2].server[0] congestionRatio 0
scalar FogNoLB.fog[2].server[0] totalJobs 580837
scalar FogNoLB.fog[2].server[0] droppedJobsQueue 136146
scalar FogNoLB.fog[2].server[0] droppedJobsTimout 0
scalar FogNoLB.fog[2].server[0] droppedJobsSLA 0
scalar FogNoLB.fog[2].server[0] droppedJobsTotal 136146
scalar FogNoLB.fog[3].dispatcher localJobs 581282
scalar FogNoLB.fog[3].dispatcher remoteJobs 0
scalar FogNoLB.fog[3].dispatcher probeQueries 0
scalar FogNoLB.fog[3].dispatcher probeAnswers 0
scalar FogNoLB.fog[3].dispatcher droppedJobsSLA 0
scalar FogNoLB.fog[3].dispatcher jobs_class_1 581282
scalar FogNoLB.fog[3].dispatcher localJobs_class_1 581282
scalar FogNoLB.fog[3].server[0] rho 0.68755495548248
scalar FogNoLB.fog[3].server[0] congestionRatio 0
scalar FogNoLB.fog[3].server[0] totalJobs 581282
scalar FogNoLB.fog[3].server[0] droppedJobsQueue 136660
scalar FogNoLB.fog[3].server[0] droppedJobsTimout 0
scalar FogNoLB.fog[3].server[0] droppedJobsSLA 0
scalar FogNoLB.fog[3].server[0] droppedJobsTotal 136660
scalar FogNoLB.fog[4].dispatcher localJobs 582172
scalar FogNoLB.fog[4].dispatcher remoteJobs 0
scalar FogNoLB.fog[4].dispatcher probeQueries 0
scalar FogNoLB.fog[4].dispatcher probeAnswers 0
scalar FogNoLB.fog[4].dispatcher droppedJobsSLA 0
scalar FogNoLB.fog[4].dispatcher jobs_class_1 582172
scalar FogNoLB.fog[4].dispatcher localJobs_class_1 582172
scalar FogNoLB.fog[4].server[0] rho 0.68921709060669
scalar FogNoLB.fog[4].server[0] congestionRatio 0
scalar FogNoLB.fog[4].server[0] totalJobs 582172
scalar FogNoLB.fog[4].server[0] droppedJobsQueue 136432
scalar FogNoLB.fog[4].server[0] droppedJobsTimout 0
scalar FogNoLB.fog[4].server[0] droppedJobsSLA 0
scalar FogNoLB.fog[4].server[0] droppedJobsTotal 136432
scalar FogNoLB.fog[5].dispatcher localJobs 580463
scalar FogNoLB.fog[5].dispatcher remoteJobs 0
scalar FogNoLB.fog[5].dispatcher probeQueries 0
scalar FogNoLB.fog[5].dispatcher probeAnswers 0
scalar FogNoLB.fog[5].dispatcher droppedJobsSLA 0
scalar FogNoLB.fog[5].dispatcher jobs_class_1 580463
scalar FogNoLB.fog[5].dispatcher localJobs_class_1 580463
scalar FogNoLB.fog[5].server[0] rho 0.68766856193542
scalar FogNoLB.fog[5].server[0] congestionRatio 0
scalar FogNoLB.fog[5].server[0] totalJobs 580463
scalar FogNoLB.fog[5].server[0] droppedJobsQueue 135759
scalar FogNoLB.fog[5].server[0] droppedJobsTimout 0
scalar FogNoLB.fog[5].server[0] droppedJobsSLA 0
scalar FogNoLB.fog[5].server[0] droppedJobsTotal 135759
scalar FogNoLB.fog[6].dispatcher localJobs 581833
scalar FogNoLB.fog[6].dispatcher remoteJobs 0
scalar FogNoLB.fog[6].dispatcher probeQueries 0
scalar FogNoLB.fog[6].dispatcher probeAnswers 0
scalar FogNoLB.fog[6].dispatcher droppedJobsSLA 0
scalar FogNoLB.fog[6].dispatcher jobs_class_1 581833
scalar FogNoLB.fog[6].dispatcher localJobs_class_1 581833
scalar FogNoLB.fog[6].server[0] rho 0.687828540802
scalar FogNoLB.fog[6].server[0] congestionRatio 0
scalar FogNoLB.fog[6].server[0] totalJobs 581833
scalar FogNoLB.fog[6].server[0] droppedJobsQueue 136992
scalar FogNoLB.fog[6].server[0] droppedJobsTimout 0
scalar FogNoLB.fog[6].server[0] droppedJobsSLA 0
scalar FogNoLB.fog[6].server[0] droppedJobsTotal 136992
scalar FogNoLB.fog[7].dispatcher localJobs 581139
scalar FogNoLB.fog[7].dispatcher remoteJobs 0
scalar FogNoLB.fog[7].dispatcher probeQueries 0
scalar FogNoLB.fog[7].dispatcher probeAnswers 0
scalar FogNoLB.fog[7].dispatcher droppedJobsSLA 0
scalar FogNoLB.fog[7].dispatcher jobs_class_1 581139
scalar FogNoLB.fog[7].dispatcher localJobs_class_1 581139
scalar FogNoLB.fog[7].server[0] rho 0.68816012144089
scalar FogNoLB.fog[7].server[0] congestionRatio 0
scalar FogNoLB.fog[7].server[0] totalJobs 581139
scalar FogNoLB.fog[7].server[0] droppedJobsQueue 136107
scalar FogNoLB.fog[7].server[0] droppedJobsTimout 0
scalar FogNoLB.fog[7].server[0] droppedJobsSLA 0
scalar FogNoLB.fog[7].server[0] droppedJobsTotal 136107
scalar FogNoLB.fog[8].dispatcher localJobs 583366
scalar FogNoLB.fog[8].dispatcher remoteJobs 0
scalar FogNoLB.fog[8].dispatcher probeQueries 0
scalar FogNoLB.fog[8].dispatcher probeAnswers 0
scalar FogNoLB.fog[8].dispatcher droppedJobsSLA 0
scalar FogNoLB.fog[8].dispatcher jobs_class_1 583366
scalar FogNoLB.fog[8].dispatcher localJobs_class_1 583366
scalar FogNoLB.fog[8].server[0] rho 0.68968939781189
scalar FogNoLB.fog[8].server[0] congestionRatio 0
scalar FogNoLB.fog[8].server[0] totalJobs 583366
scalar FogNoLB.fog[8].server[0] droppedJobsQueue 137351
scalar FogNoLB.fog[8].server[0] droppedJobsTimout 0
scalar FogNoLB.fog[8].server[0] droppedJobsSLA 0
scalar FogNoLB.fog[8].server[0] droppedJobsTotal 137351
scalar FogNoLB.fog[9].dispatcher localJobs 581107
scalar FogNoLB.fog[9].dispatcher remoteJobs 0
scalar FogNoLB.fog[9].dispatcher probeQueries 0
scalar FogNoLB.fog[9].dispatcher probeAnswers 0
scalar FogNoLB.fog[9].dispatcher droppedJobsSLA 0
scalar FogNoLB.fog[9].dispatcher jobs_class_1 581107
scalar FogNoLB.fog[9].dispatcher localJobs_class_1 581107
scalar FogNoLB.fog[9].server[0] rho 0.68835920095444
scalar FogNoLB.fog[9].server[0] congestionRatio 0
scalar FogNoLB.fog[9].server[0] totalJobs 581107
scalar FogNoLB.fog[9].server[0] droppedJobsQueue 135933
scalar FogNoLB.fog[9].server[0] droppedJobsTimout 0
scalar FogNoLB.fog[9].server[0] droppedJobsSLA 0
scalar FogNoLB.fog[9].server[0] droppedJobsTotal 135933
scalar FogNoLB.fog[10].dispatcher localJobs 582422
scalar FogNoLB.fog[10].dispatcher remoteJobs 0
scalar FogNoLB.fog[10].dispatcher probeQueries 0
scalar FogNoLB.fog[10].dispatcher probeAnswers 0
scalar FogNoLB.fog[10].dispatcher droppedJobsSLA 0
scalar FogNoLB.fog[10].dispatcher jobs_class_1 582422
scalar FogNoLB.fog[10].dispatcher localJobs_class_1 582422
scalar FogNoLB.fog[10].server[0] rho 0.68895626068115
scalar FogNoLB.fog[10].server[0] congestionRatio 0
scalar FogNoLB.fog[10].server[0] totalJobs 582422
scalar FogNoLB.fog[10].server[0] droppedJobsQueue 136872
scalar FogNoLB.fog[10].server[0] droppedJobsTimout 0
scalar FogNoLB.fog[10].server[0] droppedJobsSLA 0
scalar FogNoLB.fog[10].server[0] droppedJobsTotal 136872
scalar FogNoLB.fog[11].dispatcher localJobs 581784
scalar FogNoLB.fog[11].dispatcher remoteJobs 0
scalar FogNoLB.fog[11].dispatcher probeQueries 0
scalar FogNoLB.fog[11].dispatcher probeAnswers 0
scalar FogNoLB.fog[11].dispatcher droppedJobsSLA 0
scalar FogNoLB.fog[11].dispatcher jobs_class_1 581784
scalar FogNoLB.fog[11].dispatcher localJobs_class_1 581784
scalar FogNoLB.fog[11].server[0] rho 0.68895894289017
scalar FogNoLB.fog[11].server[0] congestionRatio 0
scalar FogNoLB.fog[11].server[0] totalJobs 581784
scalar FogNoLB.fog[11].server[0] droppedJobsQueue 136222
scalar FogNoLB.fog[11].server[0] droppedJobsTimout 0
scalar FogNoLB.fog[11].server[0] droppedJobsSLA 0
scalar FogNoLB.fog[11].server[0] droppedJobsTotal 136222
scalar FogNoLB.fog[12].dispatcher localJobs 581047
scalar FogNoLB.fog[12].dispatcher remoteJobs 0
scalar FogNoLB.fog[12].dispatcher probeQueries 0
scalar FogNoLB.fog[12].dispatcher probeAnswers 0
scalar FogNoLB.fog[12].dispatcher droppedJobsSLA 0
scalar FogNoLB.fog[12].dispatcher jobs_class_1 581047
scalar FogNoLB.fog[12].dispatcher localJobs_class_1 581047
scalar FogNoLB.fog[12].server[0] rho 0.68750149011612
scalar FogNoLB.fog[12].server[0] congestionRatio 0
scalar FogNoLB.fog[12].server[0] totalJobs 581047
scalar FogNoLB.fog[12].server[0] droppedJobsQueue 136445
scalar FogNoLB.fog[12].server[0] droppedJobsTimout 0
scalar FogNoLB.fog[12].server[0] droppedJobsSLA 0
scalar FogNoLB.fog[12].server[0] droppedJobsTotal 136445
scalar FogNoLB.fog[13].dispatcher localJobs 581776
scalar FogNoLB.fog[13].dispatcher remoteJobs 0
scalar FogNoLB.fog[13].dispatcher probeQueries 0
scalar FogNoLB.fog[13].dispatcher probeAnswers 0
scalar FogNoLB.fog[13].dispatcher droppedJobsSLA 0
scalar FogNoLB.fog[13].dispatcher jobs_class_1 581776
scalar FogNoLB.fog[13].dispatcher localJobs_class_1 581776
scalar FogNoLB.fog[13].server[0] rho 0.68776714801788
scalar FogNoLB.fog[13].server[0] congestionRatio 0
scalar FogNoLB.fog[13].server[0] totalJobs 581776
scalar FogNoLB.fog[13].server[0] droppedJobsQueue 136992
scalar FogNoLB.fog[13].server[0] droppedJobsTimout 0
scalar FogNoLB.fog[13].server[0] droppedJobsSLA 0
scalar FogNoLB.fog[13].server[0] droppedJobsTotal 136992
scalar FogNoLB.fog[14].dispatcher localJobs 582446
scalar FogNoLB.fog[14].dispatcher remoteJobs 0
scalar FogNoLB.fog[14].dispatcher probeQueries 0
scalar FogNoLB.fog[14].dispatcher probeAnswers 0
scalar FogNoLB.fog[14].dispatcher droppedJobsSLA 0
scalar FogNoLB.fog[14].dispatcher jobs_class_1 582446
scalar FogNoLB.fog[14].dispatcher localJobs_class_1 582446
scalar FogNoLB.fog[14].server[0] rho 0.68909472227097
scalar FogNoLB.fog[14].server[0] congestionRatio 0
scalar FogNoLB.fog[14].server[0] totalJobs 582446
scalar FogNoLB.fog[14].server[0] droppedJobsQueue 136805
scalar FogNoLB.fog[14].server[0] droppedJobsTimout 0
scalar FogNoLB.fog[14].server[0] droppedJobsSLA 0
scalar FogNoLB.fog[14].server[0] droppedJobsTotal 136805
scalar FogNoLB.fog[15].dispatcher localJobs 583671
scalar FogNoLB.fog[15].dispatcher remoteJobs 0
scalar FogNoLB.fog[15].dispatcher probeQueries 0
scalar FogNoLB.fog[15].dispatcher probeAnswers 0
scalar FogNoLB.fog[15].dispatcher droppedJobsSLA 0
scalar FogNoLB.fog[15].dispatcher jobs_class_1 583671
scalar FogNoLB.fog[15].dispatcher localJobs_class_1 583671
scalar FogNoLB.fog[15].server[0] rho 0.68962460756302
scalar FogNoLB.fog[15].server[0] congestionRatio 0
scalar FogNoLB.fog[15].server[0] totalJobs 583671
scalar FogNoLB.fog[15].server[0] droppedJobsQueue 137672
scalar FogNoLB.fog[15].server[0] droppedJobsTimout 0
scalar FogNoLB.fog[15].server[0] droppedJobsSLA 0
scalar FogNoLB.fog[15].server[0] droppedJobsTotal 137672
scalar FogNoLB.fog[16].dispatcher localJobs 581634
scalar FogNoLB.fog[16].dispatcher remoteJobs 0
scalar FogNoLB.fog[16].dispatcher probeQueries 0
scalar FogNoLB.fog[16].dispatcher probeAnswers 0
scalar FogNoLB.fog[16].dispatcher droppedJobsSLA 0
scalar FogNoLB.fog[16].dispatcher jobs_class_1 581634
scalar FogNoLB.fog[16].dispatcher localJobs_class_1 581634
scalar FogNoLB.fog[16].server[0] rho 0.68848121166229
scalar FogNoLB.fog[16].server[0] congestionRatio 0
scalar FogNoLB.fog[16].server[0] totalJobs 581634
scalar FogNoLB.fog[16].server[0] droppedJobsQueue 136384
scalar FogNoLB.fog[16].server[0] droppedJobsTimout 0
scalar FogNoLB.fog[16].server[0] droppedJobsSLA 0
scalar FogNoLB.fog[16].server[0] droppedJobsTotal 136384
scalar FogNoLB.fog[17].dispatcher localJobs 582409
scalar FogNoLB.fog[17].dispatcher remoteJobs 0
scalar FogNoLB.fog[17].dispatcher probeQueries 0
scalar FogNoLB.fog[17].dispatcher probeAnswers 0
scalar FogNoLB.fog[17].dispatcher droppedJobsSLA 0
scalar FogNoLB.fog[17].dispatcher jobs_class_1 582409
scalar FogNoLB.fog[17].dispatcher localJobs_class_1 582409
scalar FogNoLB.fog[17].server[0] rho 0.68852841854095
scalar FogNoLB.fog[17].server[0] congestionRatio 0
scalar FogNoLB.fog[17].server[0] totalJobs 582409
scalar FogNoLB.fog[17].server[0] droppedJobsQueue 137125
scalar FogNoLB.fog[17].server[0] droppedJobsTimout 0
scalar FogNoLB.fog[17].server[0] droppedJobsSLA 0
scalar FogNoLB.fog[17].server[0] droppedJobsTotal 137125
scalar FogNoLB.fog[18].dispatcher localJobs 581821
scalar FogNoLB.fog[18].dispatcher remoteJobs 0
scalar FogNoLB.fog[18].dispatcher probeQueries 0
scalar FogNoLB.fog[18].dispatcher probeAnswers 0
scalar FogNoLB.fog[18].dispatcher droppedJobsSLA 0
scalar FogNoLB.fog[18].dispatcher jobs_class_1 581821
scalar FogNoLB.fog[18].dispatcher localJobs_class_1 581821
scalar FogNoLB.fog[18].server[0] rho 0.68840408325195
scalar FogNoLB.fog[18].server[0] congestionRatio 0
scalar FogNoLB.fog[18].server[0] totalJobs 581821
scalar FogNoLB.fog[18].server[0] droppedJobsQueue 136591
scalar FogNoLB.fog[18].server[0] droppedJobsTimout 0
scalar FogNoLB.fog[18].server[0] droppedJobsSLA 0
scalar FogNoLB.fog[18].server[0] droppedJobsTotal 136591
scalar FogNoLB.fog[19].dispatcher localJobs 582569
scalar FogNoLB.fog[19].dispatcher remoteJobs 0
scalar FogNoLB.fog[19].dispatcher probeQueries 0
scalar FogNoLB.fog[19].dispatcher probeAnswers 0
scalar FogNoLB.fog[19].dispatcher droppedJobsSLA 0
scalar FogNoLB.fog[19].dispatcher jobs_class_1 582569
scalar FogNoLB.fog[19].dispatcher localJobs_class_1 582569
scalar FogNoLB.fog[19].server[0] rho 0.68912065029144
scalar FogNoLB.fog[19].server[0] congestionRatio 0
scalar FogNoLB.fog[19].server[0] totalJobs 582569
scalar FogNoLB.fog[19].server[0] droppedJobsQueue 136912
scalar FogNoLB.fog[19].server[0] droppedJobsTimout 0
scalar FogNoLB.fog[19].server[0] droppedJobsSLA 0
scalar FogNoLB.fog[19].server[0] droppedJobsTotal 136912
scalar FogNoLB.fog[20].dispatcher localJobs 581691
scalar FogNoLB.fog[20].dispatcher remoteJobs 0
scalar FogNoLB.fog[20].dispatcher probeQueries 0
scalar FogNoLB.fog[20].dispatcher probeAnswers 0
scalar FogNoLB.fog[20].dispatcher droppedJobsSLA 0
scalar FogNoLB.fog[20].dispatcher jobs_class_1 581691
scalar FogNoLB.fog[20].dispatcher localJobs_class_1 581691
scalar FogNoLB.fog[20].server[0] rho 0.68886768817902
scalar FogNoLB.fog[20].server[0] congestionRatio 0
scalar FogNoLB.fog[20].server[0] totalJobs 581691
scalar FogNoLB.fog[20].server[0] droppedJobsQueue 136212
scalar FogNoLB.fog[20].server[0] droppedJobsTimout 0
scalar FogNoLB.fog[20].server[0] droppedJobsSLA 0
scalar FogNoLB.fog[20].server[0] droppedJobsTotal 136212
scalar FogNoLB.fog[21].dispatcher localJobs 581776
scalar FogNoLB.fog[21].dispatcher remoteJobs 0
scalar FogNoLB.fog[21].dispatcher probeQueries 0
scalar FogNoLB.fog[21].dispatcher probeAnswers 0
scalar FogNoLB.fog[21].dispatcher droppedJobsSLA 0
scalar FogNoLB.fog[21].dispatcher jobs_class_1 581776
scalar FogNoLB.fog[21].dispatcher localJobs_class_1 581776
scalar FogNoLB.fog[21].server[0] rho 0.68868243694305
scalar FogNoLB.fog[21].server[0] congestionRatio 0
scalar FogNoLB.fog[21].server[0] totalJobs 581776
scalar FogNoLB.fog[21].server[0] droppedJobsQueue 136389
scalar FogNoLB.fog[21].server[0] droppedJobsTimout 0
scalar FogNoLB.fog[21].server[0] droppedJobsSLA 0
scalar FogNoLB.fog[21].server[0] droppedJobsTotal 136389
scalar FogNoLB.fog[22].dispatcher localJobs 581773
scalar FogNoLB.fog[22].dispatcher remoteJobs 0
scalar FogNoLB.fog[22].dispatcher probeQueries 0
scalar FogNoLB.fog[22].dispatcher probeAnswers 0
scalar FogNoLB.fog[22].dispatcher droppedJobsSLA 0
scalar FogNoLB.fog[22].dispatcher jobs_class_1 581773
scalar FogNoLB.fog[22].dispatcher localJobs_class_1 581773
scalar FogNoLB.fog[22].server[0] rho 0.68819797039032
scalar FogNoLB.fog[22].server[0] congestionRatio 0
scalar FogNoLB.fog[22].server[0] totalJobs 581773
scalar FogNoLB.fog[22].server[0] droppedJobsQueue 136695
scalar FogNoLB.fog[22].server[0] droppedJobsTimout 0
scalar FogNoLB.fog[22].server[0] droppedJobsSLA 0
scalar FogNoLB.fog[22].server[0] droppedJobsTotal 136695
scalar FogNoLB.fog[23].dispatcher localJobs 582087
scalar FogNoLB.fog[23].dispatcher remoteJobs 0
scalar FogNoLB.fog[23].dispatcher probeQueries 0
scalar FogNoLB.fog[23].dispatcher probeAnswers 0
scalar FogNoLB.fog[23].dispatcher droppedJobsSLA 0
scalar FogNoLB.fog[23].dispatcher jobs_class_1 582087
scalar FogNoLB.fog[23].dispatcher localJobs_class_1 582087
scalar FogNoLB.fog[23].server[0] rho 0.68912088871002
scalar FogNoLB.fog[23].server[0] congestionRatio 0
scalar FogNoLB.fog[23].server[0] totalJobs 582087
scalar FogNoLB.fog[23].server[0] droppedJobsQueue 136433
scalar FogNoLB.fog[23].server[0] droppedJobsTimout 0
scalar FogNoLB.fog[23].server[0] droppedJobsSLA 0
scalar FogNoLB.fog[23].server[0] droppedJobsTotal 136433
scalar FogNoLB.fog[24].dispatcher localJobs 580569
scalar FogNoLB.fog[24].dispatcher remoteJobs 0
scalar FogNoLB.fog[24].dispatcher probeQueries 0
scalar FogNoLB.fog[24].dispatcher probeAnswers 0
scalar FogNoLB.fog[24].dispatcher droppedJobsSLA 0
scalar FogNoLB.fog[24].dispatcher jobs_class_1 580569
scalar FogNoLB.fog[24].dispatcher localJobs_class_1 580569
scalar FogNoLB.fog[24].server[0] rho 0.68749564886093
scalar FogNoLB.fog[24].server[0] congestionRatio 0
scalar FogNoLB.fog[24].server[0] totalJobs 580569
scalar FogNoLB.fog[24].server[0] droppedJobsQueue 135965
scalar FogNoLB.fog[24].server[0] droppedJobsTimout 0
scalar FogNoLB.fog[24].server[0] droppedJobsSLA 0
scalar FogNoLB.fog[24].server[0] droppedJobsTotal 135965
scalar FogNoLB.fog[25].dispatcher localJobs 581625
scalar FogNoLB.fog[25].dispatcher remoteJobs 0
scalar FogNoLB.fog[25].dispatcher probeQueries 0
scalar FogNoLB.fog[25].dispatcher probeAnswers 0
scalar FogNoLB.fog[25].dispatcher droppedJobsSLA 0
scalar FogNoLB.fog[25].dispatcher jobs_class_1 581625
scalar FogNoLB.fog[25].dispatcher localJobs_class_1 581625
scalar FogNoLB.fog[25].server[0] rho 0.6882272362709
scalar FogNoLB.fog[25].server[0] congestionRatio 0
scalar FogNoLB.fog[25].server[0] totalJobs 581625
scalar FogNoLB.fog[25].server[0] droppedJobsQueue 136532
scalar FogNoLB.fog[25].server[0] droppedJobsTimout 0
scalar FogNoLB.fog[25].server[0] droppedJobsSLA 0
scalar FogNoLB.fog[25].server[0] droppedJobsTotal 136532
scalar FogNoLB.fog[26].dispatcher localJobs 581524
scalar FogNoLB.fog[26].dispatcher remoteJobs 0
scalar FogNoLB.fog[26].dispatcher probeQueries 0
scalar FogNoLB.fog[26].dispatcher probeAnswers 0
scalar FogNoLB.fog[26].dispatcher droppedJobsSLA 0
scalar FogNoLB.fog[26].dispatcher jobs_class_1 581524
scalar FogNoLB.fog[26].dispatcher localJobs_class_1 581524
scalar FogNoLB.fog[26].server[0] rho 0.68876481056213
scalar FogNoLB.fog[26].server[0] congestionRatio 0
scalar FogNoLB.fog[26].server[0] totalJobs 581524
scalar FogNoLB.fog[26].server[0] droppedJobsQueue 136096
scalar FogNoLB.fog[26].server[0] droppedJobsTimout 0
scalar FogNoLB.fog[26].server[0] droppedJobsSLA 0
scalar FogNoLB.fog[26].server[0] droppedJobsTotal 136096
scalar FogNoLB.fog[27].dispatcher localJobs 580733
scalar FogNoLB.fog[27].dispatcher remoteJobs 0
scalar FogNoLB.fog[27].dispatcher probeQueries 0
scalar FogNoLB.fog[27].dispatcher probeAnswers 0
scalar FogNoLB.fog[27].dispatcher droppedJobsSLA 0
scalar FogNoLB.fog[27].dispatcher jobs_class_1 580733
scalar FogNoLB.fog[27].dispatcher localJobs_class_1 580733
scalar FogNoLB.fog[27].server[0] rho 0.68771624565125
scalar FogNoLB.fog[27].server[0] congestionRatio 0
scalar FogNoLB.fog[27].server[0] totalJobs 580733
scalar FogNoLB.fog[27].server[0] droppedJobsQueue 135991
scalar FogNoLB.fog[27].server[0] droppedJobsTimout 0
scalar FogNoLB.fog[27].server[0] droppedJobsSLA 0
scalar FogNoLB.fog[27].server[0] droppedJobsTotal 135991
scalar FogNoLB.fog[28].dispatcher localJobs 581047
scalar FogNoLB.fog[28].dispatcher remoteJobs 0
scalar FogNoLB.fog[28].dispatcher probeQueries 0
scalar FogNoLB.fog[28].dispatcher probeAnswers 0
scalar FogNoLB.fog[28].dispatcher droppedJobsSLA 0
scalar FogNoLB.fog[28].dispatcher jobs_class_1 581047
scalar FogNoLB.fog[28].dispatcher localJobs_class_1 581047
scalar FogNoLB.fog[28].server[0] rho 0.68851035833359
scalar FogNoLB.fog[28].server[0] congestionRatio 0
scalar FogNoLB.fog[28].server[0] totalJobs 581047
scalar FogNoLB.fog[28].server[0] droppedJobsQueue 135772
scalar FogNoLB.fog[28].server[0] droppedJobsTimout 0
scalar FogNoLB.fog[28].server[0] droppedJobsSLA 0
scalar FogNoLB.fog[28].server[0] droppedJobsTotal 135772
scalar FogNoLB.fog[29].dispatcher localJobs 581444
scalar FogNoLB.fog[29].dispatcher remoteJobs 0
scalar FogNoLB.fog[29].dispatcher probeQueries 0
scalar FogNoLB.fog[29].dispatcher probeAnswers 0
scalar FogNoLB.fog[29].dispatcher droppedJobsSLA 0
scalar FogNoLB.fog[29].dispatcher jobs_class_1 581444
scalar FogNoLB.fog[29].dispatcher localJobs_class_1 581444
scalar FogNoLB.fog[29].server[0] rho 0.68869757652283
scalar FogNoLB.fog[29].server[0] congestionRatio 0
scalar FogNoLB.fog[29].server[0] totalJobs 581444
scalar FogNoLB.fog[29].server[0] droppedJobsQueue 136073
scalar FogNoLB.fog[29].server[0] droppedJobsTimout 0
scalar FogNoLB.fog[29].server[0] droppedJobsSLA 0
scalar FogNoLB.fog[29].server[0] droppedJobsTotal 136073
scalar FogNoLB.fog[30].dispatcher localJobs 582731
scalar FogNoLB.fog[30].dispatcher remoteJobs 0
scalar FogNoLB.fog[30].dispatcher probeQueries 0
scalar FogNoLB.fog[30].dispatcher probeAnswers 0
scalar FogNoLB.fog[30].dispatcher droppedJobsSLA 0
scalar FogNoLB.fog[30].dispatcher jobs_class_1 582731
scalar FogNoLB.fog[30].dispatcher localJobs_class_1 582731
scalar FogNoLB.fog[30].server[0] rho 0.68956071138382
scalar FogNoLB.fog[30].server[0] congestionRatio 0
scalar FogNoLB.fog[30].server[0] totalJobs 582731
scalar FogNoLB.fog[30].server[0] droppedJobsQueue 136781
scalar FogNoLB.fog[30].server[0] droppedJobsTimout 0
scalar FogNoLB.fog[30].server[0] droppedJobsSLA 0
scalar FogNoLB.fog[30].server[0] droppedJobsTotal 136781
scalar FogNoLB.fog[31].dispatcher localJobs 582006
scalar FogNoLB.fog[31].dispatcher remoteJobs 0
scalar FogNoLB.fog[31].dispatcher probeQueries 0
scalar FogNoLB.fog[31].dispatcher probeAnswers 0
scalar FogNoLB.fog[31].dispatcher droppedJobsSLA 0
scalar FogNoLB.fog[31].dispatcher jobs_class_1 582006
scalar FogNoLB.fog[31].dispatcher localJobs_class_1 582006
scalar FogNoLB.fog[31].server[0] rho 0.68848252296448
scalar FogNoLB.fog[31].server[0] congestionRatio 0
scalar FogNoLB.fog[31].server[0] totalJobs 582006
scalar FogNoLB.fog[31].server[0] droppedJobsQueue 136751
scalar FogNoLB.fog[31].server[0] droppedJobsTimout 0
scalar FogNoLB.fog[31].server[0] droppedJobsSLA 0
scalar FogNoLB.fog[31].server[0] droppedJobsTotal 136751
scalar FogNoLB.fog[32].dispatcher localJobs 583149
scalar FogNoLB.fog[32].dispatcher remoteJobs 0
scalar FogNoLB.fog[32].dispatcher probeQueries 0
scalar FogNoLB.fog[32].dispatcher probeAnswers 0
scalar FogNoLB.fog[32].dispatcher droppedJobsSLA 0
scalar FogNoLB.fog[32].dispatcher jobs_class_1 583149
scalar FogNoLB.fog[32].dispatcher localJobs_class_1 583149
scalar FogNoLB.fog[32].server[0] rho 0.68944144248962
scalar FogNoLB.fog[32].server[0] congestionRatio 0
scalar FogNoLB.fog[32].server[0] totalJobs 583149
scalar FogNoLB.fog[32].server[0] droppedJobsQueue 137286
scalar FogNoLB.fog[32].server[0] droppedJobsTimout 0
scalar FogNoLB.fog[32].server[0] droppedJobsSLA 0
scalar FogNoLB.fog[32].server[0] droppedJobsTotal 137286
scalar FogNoLB.fog[33].dispatcher localJobs 581118
scalar FogNoLB.fog[33].dispatcher remoteJobs 0
scalar FogNoLB.fog[33].dispatcher probeQueries 0
scalar FogNoLB.fog[33].dispatcher probeAnswers 0
scalar FogNoLB.fog[33].dispatcher droppedJobsSLA 0
scalar FogNoLB.fog[33].dispatcher jobs_class_1 581118
scalar FogNoLB.fog[33].dispatcher localJobs_class_1 581118
scalar FogNoLB.fog[33].server[0] rho 0.68798023462296
scalar FogNoLB.fog[33].server[0] congestionRatio 0
scalar FogNoLB.fog[33].server[0] totalJobs 581118
scalar FogNoLB.fog[33].server[0] droppedJobsQueue 136205
scalar FogNoLB.fog[33].server[0] droppedJobsTimout 0
scalar FogNoLB.fog[33].server[0] droppedJobsSLA 0
scalar FogNoLB.fog[33].server[0] droppedJobsTotal 136205
scalar FogNoLB.fog[34].dispatcher localJobs 582584
scalar FogNoLB.fog[34].dispatcher remoteJobs 0
scalar FogNoLB.fog[34].dispatcher probeQueries 0
scalar FogNoLB.fog[34].dispatcher probeAnswers 0
scalar FogNoLB.fog[34].dispatcher droppedJobsSLA 0
scalar FogNoLB.fog[34].dispatcher jobs_class_1 582584
scalar FogNoLB.fog[34].dispatcher localJobs_class_1 582584
scalar FogNoLB.fog[34].server[0] rho 0.68969279527664
scalar FogNoLB.fog[34].server[0] congestionRatio 0
scalar FogNoLB.fog[34].server[0] totalJobs 582584
scalar FogNoLB.fog[34].server[0] droppedJobsQueue 136533
scalar FogNoLB.fog[34].server[0] droppedJobsTimout 0
scalar FogNoLB.fog[34].server[0] droppedJobsSLA 0
scalar FogNoLB.fog[34].server[0] droppedJobsTotal 136533
scalar FogNoLB.fog[35].dispatcher localJobs 579931
scalar FogNoLB.fog[35].dispatcher remoteJobs 0
scalar FogNoLB.fog[35].dispatcher probeQueries 0
scalar FogNoLB.fog[35].dispatcher probeAnswers 0
scalar FogNoLB.fog[35].dispatcher droppedJobsSLA 0
scalar FogNoLB.fog[35].dispatcher jobs_class_1 579931
scalar FogNoLB.fog[35].dispatcher localJobs_class_1 579931
scalar FogNoLB.fog[35].server[0] rho 0.68682008981705
scalar FogNoLB.fog[35].server[0] congestionRatio 0
scalar FogNoLB.fog[35].server[0] totalJobs 579931
scalar FogNoLB.fog[35].server[0] droppedJobsQueue 135752
scalar FogNoLB.fog[35].server[0] droppedJobsTimout 0
scalar FogNoLB.fog[35].server[0] droppedJobsSLA 0
scalar FogNoLB.fog[35].server[0] droppedJobsTotal 135752
scalar FogNoLB.fog[36].dispatcher localJobs 583109
scalar FogNoLB.fog[36].dispatcher remoteJobs 0
scalar FogNoLB.fog[36].dispatcher probeQueries 0
scalar FogNoLB.fog[36].dispatcher probeAnswers 0
scalar FogNoLB.fog[36].dispatcher droppedJobsSLA 0
scalar FogNoLB.fog[36].dispatcher jobs_class_1 583109
scalar FogNoLB.fog[36].dispatcher localJobs_class_1 583109
scalar FogNoLB.fog[36].server[0] rho 0.68963462114334
scalar FogNoLB.fog[36].server[0] congestionRatio 0
scalar FogNoLB.fog[36].server[0] totalJobs 583109
scalar FogNoLB.fog[36].server[0] droppedJobsQueue 137137
scalar FogNoLB.fog[36].server[0] droppedJobsTimout 0
scalar FogNoLB.fog[36].server[0] droppedJobsSLA 0
scalar FogNoLB.fog[36].server[0] droppedJobsTotal 137137
scalar FogNoLB.fog[37].dispatcher localJobs 582491
scalar FogNoLB.fog[37].dispatcher remoteJobs 0
scalar FogNoLB.fog[37].dispatcher probeQueries 0
scalar FogNoLB.fog[37].dispatcher probeAnswers 0
scalar FogNoLB.fog[37].dispatcher droppedJobsSLA 0
scalar FogNoLB.fog[37].dispatcher jobs_class_1 582491
scalar FogNoLB.fog[37].dispatcher localJobs_class_1 582491
scalar FogNoLB.fog[37].server[0] rho 0.68836635351181
scalar FogNoLB.fog[37].server[0] congestionRatio 0
scalar FogNoLB.fog[37].server[0] totalJobs 582491
scalar FogNoLB.fog[37].server[0] droppedJobsQueue 137305
scalar FogNoLB.fog[37].server[0] droppedJobsTimout 0
scalar FogNoLB.fog[37].server[0] droppedJobsSLA 0
scalar FogNoLB.fog[37].server[0] droppedJobsTotal 137305
scalar FogNoLB.fog[38].dispatcher localJobs 581694
scalar FogNoLB.fog[38].dispatcher remoteJobs 0
scalar FogNoLB.fog[38].dispatcher probeQueries 0
scalar FogNoLB.fog[38].dispatcher probeAnswers 0
scalar FogNoLB.fog[38].dispatcher droppedJobsSLA 0
scalar FogNoLB.fog[38].dispatcher jobs_class_1 581694
scalar FogNoLB.fog[38].dispatcher localJobs_class_1 581694
scalar FogNoLB.fog[38].server[0] rho 0.68873924016953
scalar FogNoLB.fog[38].server[0] congestionRatio 0
scalar FogNoLB.fog[38].server[0] totalJobs 581694
scalar FogNoLB.fog[38].server[0] droppedJobsQueue 136291
scalar FogNoLB.fog[38].server[0] droppedJobsTimout 0
scalar FogNoLB.fog[38].server[0] droppedJobsSLA 0
scalar FogNoLB.fog[38].server[0] droppedJobsTotal 136291
scalar FogNoLB.fog[39].dispatcher localJobs 581086
scalar FogNoLB.fog[39].dispatcher remoteJobs 0
scalar FogNoLB.fog[39].dispatcher probeQueries 0
scalar FogNoLB.fog[39].dispatcher probeAnswers 0
scalar FogNoLB.fog[39].dispatcher droppedJobsSLA 0
scalar FogNoLB.fog[39].dispatcher jobs_class_1 581086
scalar FogNoLB.fog[39].dispatcher localJobs_class_1 581086
scalar FogNoLB.fog[39].server[0] rho 0.68790650367737
scalar FogNoLB.fog[39].server[0] congestionRatio 0
scalar FogNoLB.fog[39].server[0] totalJobs 581086
scalar FogNoLB.fog[39].server[0] droppedJobsQueue 136203
scalar FogNoLB.fog[39].server[0] droppedJobsTimout 0
scalar FogNoLB.fog[39].server[0] droppedJobsSLA 0
scalar FogNoLB.fog[39].server[0] droppedJobsTotal 136203
scalar FogNoLB.fog[40].dispatcher localJobs 582516
scalar FogNoLB.fog[40].dispatcher remoteJobs 0
scalar FogNoLB.fog[40].dispatcher probeQueries 0
scalar FogNoLB.fog[40].dispatcher probeAnswers 0
scalar FogNoLB.fog[40].dispatcher droppedJobsSLA 0
scalar FogNoLB.fog[40].dispatcher jobs_class_1 582516
scalar FogNoLB.fog[40].dispatcher localJobs_class_1 582516
scalar FogNoLB.fog[40].server[0] rho 0.6893704533577
scalar FogNoLB.fog[40].server[0] congestionRatio 0
scalar FogNoLB.fog[40].server[0] totalJobs 582516
scalar FogNoLB.fog[40].server[0] droppedJobsQueue 136714
scalar FogNoLB.fog[40].server[0] droppedJobsTimout 0
scalar FogNoLB.fog[40].server[0] droppedJobsSLA 0
scalar FogNoLB.fog[40].server[0] droppedJobsTotal 136714
scalar FogNoLB.fog[41].dispatcher localJobs 582439
scalar FogNoLB.fog[41].dispatcher remoteJobs 0
scalar FogNoLB.fog[41].dispatcher probeQueries 0
scalar FogNoLB.fog[41].dispatcher probeAnswers 0
scalar FogNoLB.fog[41].dispatcher droppedJobsSLA 0
scalar FogNoLB.fog[41].dispatcher jobs_class_1 582439
scalar FogNoLB.fog[41].dispatcher localJobs_class_1 582439
scalar FogNoLB.fog[41].server[0] rho 0.6894336938858
scalar FogNoLB.fog[41].server[0] congestionRatio 0
scalar FogNoLB.fog[41].server[0] totalJobs 582439
scalar FogNoLB.fog[41].server[0] droppedJobsQueue 136578
scalar FogNoLB.fog[41].server[0] droppedJobsTimout 0
scalar FogNoLB.fog[41].server[0] droppedJobsSLA 0
scalar FogNoLB.fog[41].server[0] droppedJobsTotal 136578
scalar FogNoLB.fog[42].dispatcher localJobs 580916
scalar FogNoLB.fog[42].dispatcher remoteJobs 0
scalar FogNoLB.fog[42].dispatcher probeQueries 0
scalar FogNoLB.fog[42].dispatcher probeAnswers 0
scalar FogNoLB.fog[42].dispatcher droppedJobsSLA 0
scalar FogNoLB.fog[42].dispatcher jobs_class_1 580916
scalar FogNoLB.fog[42].dispatcher localJobs_class_1 580916
scalar FogNoLB.fog[42].server[0] rho 0.68820124864578
scalar FogNoLB.fog[42].server[0] congestionRatio 0
scalar FogNoLB.fog[42].server[0] totalJobs 580916
scalar FogNoLB.fog[42].server[0] droppedJobsQueue 135857
scalar FogNoLB.fog[42].server[0] droppedJobsTimout 0
scalar FogNoLB.fog[42].server[0] droppedJobsSLA 0
scalar FogNoLB.fog[42].server[0] droppedJobsTotal 135857
scalar FogNoLB.fog[43].dispatcher localJobs 581916
scalar FogNoLB.fog[43].dispatcher remoteJobs 0
scalar FogNoLB.fog[43].dispatcher probeQueries 0
scalar FogNoLB.fog[43].dispatcher probeAnswers 0
scalar FogNoLB.fog[43].dispatcher droppedJobsSLA 0
scalar FogNoLB.fog[43].dispatcher jobs_class_1 581916
scalar FogNoLB.fog[43].dispatcher localJobs_class_1 581916
scalar FogNoLB.fog[43].server[0] rho 0.68816602230072
scalar FogNoLB.fog[43].server[0] congestionRatio 0
scalar FogNoLB.fog[43].server[0] totalJobs 581916
scalar FogNoLB.fog[43].server[0] droppedJobsQueue 136870
scalar FogNoLB.fog[43].server[0] droppedJobsTimout 0
scalar FogNoLB.fog[43].server[0] droppedJobsSLA 0
scalar FogNoLB.fog[43].server[0] droppedJobsTotal 136870
scalar FogNoLB.fog[44].dispatcher localJobs 582490
scalar FogNoLB.fog[44].dispatcher remoteJobs 0
scalar FogNoLB.fog[44].dispatcher probeQueries 0
scalar FogNoLB.fog[44].dispatcher probeAnswers 0
scalar FogNoLB.fog[44].dispatcher droppedJobsSLA 0
scalar FogNoLB.fog[44].dispatcher jobs_class_1 582490
scalar FogNoLB.fog[44].dispatcher localJobs_class_1 582490
scalar FogNoLB.fog[44].server[0] rho 0.68918263912201
scalar FogNoLB.fog[44].server[0] congestionRatio 0
scalar FogNoLB.fog[44].server[0] totalJobs 582490
scalar FogNoLB.fog[44].server[0] droppedJobsQueue 136782
scalar FogNoLB.fog[44].server[0] droppedJobsTimout 0
scalar FogNoLB.fog[44].server[0] droppedJobsSLA 0
scalar FogNoLB.fog[44].server[0] droppedJobsTotal 136782
scalar FogNoLB.fog[45].dispatcher localJobs 582452
scalar FogNoLB.fog[45].dispatcher remoteJobs 0
scalar FogNoLB.fog[45].dispatcher probeQueries 0
scalar FogNoLB.fog[45].dispatcher probeAnswers 0
scalar FogNoLB.fog[45].dispatcher droppedJobsSLA 0
scalar FogNoLB.fog[45].dispatcher jobs_class_1 582452
scalar FogNoLB.fog[45].dispatcher localJobs_class_1 582452
scalar FogNoLB.fog[45].server[0] rho 0.68904423713684
scalar FogNoLB.fog[45].server[0] congestionRatio 0
scalar FogNoLB.fog[45].server[0] totalJobs 582452
scalar FogNoLB.fog[45].server[0] droppedJobsQueue 136845
scalar FogNoLB.fog[45].server[0] droppedJobsTimout 0
scalar FogNoLB.fog[45].server[0] droppedJobsSLA 0
scalar FogNoLB.fog[45].server[0] droppedJobsTotal 136845
scalar FogNoLB.fog[46].dispatcher localJobs 581283
scalar FogNoLB.fog[46].dispatcher remoteJobs 0
scalar FogNoLB.fog[46].dispatcher probeQueries 0
scalar FogNoLB.fog[46].dispatcher probeAnswers 0
scalar FogNoLB.fog[46].dispatcher droppedJobsSLA 0
scalar FogNoLB.fog[46].dispatcher jobs_class_1 581283
scalar FogNoLB.fog[46].dispatcher localJobs_class_1 581283
scalar FogNoLB.fog[46].server[0] rho 0.6883852481842
scalar FogNoLB.fog[46].server[0] congestionRatio 0
scalar FogNoLB.fog[46].server[0] totalJobs 581283
scalar FogNoLB.fog[46].server[0] droppedJobsQueue 136102
scalar FogNoLB.fog[46].server[0] droppedJobsTimout 0
scalar FogNoLB.fog[46].server[0] droppedJobsSLA 0
scalar FogNoLB.fog[46].server[0] droppedJobsTotal 136102
scalar FogNoLB.fog[47].dispatcher localJobs 581138
scalar FogNoLB.fog[47].dispatcher remoteJobs 0
scalar FogNoLB.fog[47].dispatcher probeQueries 0
scalar FogNoLB.fog[47].dispatcher probeAnswers 0
scalar FogNoLB.fog[47].dispatcher droppedJobsSLA 0
scalar FogNoLB.fog[47].dispatcher jobs_class_1 581138
scalar FogNoLB.fog[47].dispatcher localJobs_class_1 581138
scalar FogNoLB.fog[47].server[0] rho 0.68784767389297
scalar FogNoLB.fog[47].server[0] congestionRatio 0
scalar FogNoLB.fog[47].server[0] totalJobs 581138
scalar FogNoLB.fog[47].server[0] droppedJobsQueue 136311
scalar FogNoLB.fog[47].server[0] droppedJobsTimout 0
scalar FogNoLB.fog[47].server[0] droppedJobsSLA 0
scalar FogNoLB.fog[47].server[0] droppedJobsTotal 136311
scalar FogNoLB.fog[48].dispatcher localJobs 582806
scalar FogNoLB.fog[48].dispatcher remoteJobs 0
scalar FogNoLB.fog[48].dispatcher probeQueries 0
scalar FogNoLB.fog[48].dispatcher probeAnswers 0
scalar FogNoLB.fog[48].dispatcher droppedJobsSLA 0
scalar FogNoLB.fog[48].dispatcher jobs_class_1 582806
scalar FogNoLB.fog[48].dispatcher localJobs_class_1 582806
scalar FogNoLB.fog[48].server[0] rho 0.68886548280716
scalar FogNoLB.fog[48].server[0] congestionRatio 0
scalar FogNoLB.fog[48].server[0] totalJobs 582806
scalar FogNoLB.fog[48].server[0] droppedJobsQueue 137327
scalar FogNoLB.fog[48].server[0] droppedJobsTimout 0
scalar FogNoLB.fog[48].server[0] droppedJobsSLA 0
scalar FogNoLB.fog[48].server[0] droppedJobsTotal 137327
scalar FogNoLB.fog[49].dispatcher localJobs 580864
scalar FogNoLB.fog[49].dispatcher remoteJobs 0
scalar FogNoLB.fog[49].dispatcher probeQueries 0
scalar FogNoLB.fog[49].dispatcher probeAnswers 0
scalar FogNoLB.fog[49].dispatcher droppedJobsSLA 0
scalar FogNoLB.fog[49].dispatcher jobs_class_1 580864
scalar FogNoLB.fog[49].dispatcher localJobs_class_1 580864
scalar FogNoLB.fog[49].server[0] rho 0.68859720230103
scalar FogNoLB.fog[49].server[0] congestionRatio 0
scalar FogNoLB.fog[49].server[0] totalJobs 580864
scalar FogNoLB.fog[49].server[0] droppedJobsQueue 135552
scalar FogNoLB.fog[49].server[0] droppedJobsTimout 0
scalar FogNoLB.fog[49].server[0] droppedJobsSLA 0
scalar FogNoLB.fog[49].server[0] droppedJobsTotal 135552
scalar FogNoLB.fog[50].dispatcher localJobs 582696
scalar FogNoLB.fog[50].dispatcher remoteJobs 0
scalar FogNoLB.fog[50].dispatcher probeQueries 0
scalar FogNoLB.fog[50].dispatcher probeAnswers 0
scalar FogNoLB.fog[50].dispatcher droppedJobsSLA 0
scalar FogNoLB.fog[50].dispatcher jobs_class_1 582696
scalar FogNoLB.fog[50].dispatcher localJobs_class_1 582696
scalar FogNoLB.fog[50].server[0] rho 0.68984627723694
scalar FogNoLB.fog[50].server[0] congestionRatio 0
scalar FogNoLB.fog[50].server[0] totalJobs 582696
scalar FogNoLB.fog[50].server[0] droppedJobsQueue 136586
scalar FogNoLB.fog[50].server[0] droppedJobsTimout 0
scalar FogNoLB.fog[50].server[0] droppedJobsSLA 0
scalar FogNoLB.fog[50].server[0] droppedJobsTotal 136586
scalar FogNoLB.fog[51].dispatcher localJobs 581635
scalar FogNoLB.fog[51].dispatcher remoteJobs 0
scalar FogNoLB.fog[51].dispatcher probeQueries 0
scalar FogNoLB.fog[51].dispatcher probeAnswers 0
scalar FogNoLB.fog[51].dispatcher droppedJobsSLA 0
scalar FogNoLB.fog[51].dispatcher jobs_class_1 581635
scalar FogNoLB.fog[51].dispatcher localJobs_class_1 581635
scalar FogNoLB.fog[51].server[0] rho 0.68846714496613
scalar FogNoLB.fog[51].server[0] congestionRatio 0
scalar FogNoLB.fog[51].server[0] totalJobs 581635
scalar FogNoLB.fog[51].server[0] droppedJobsQueue 136380
scalar FogNoLB.fog[51].server[0] droppedJobsTimout 0
scalar FogNoLB.fog[51].server[0] droppedJobsSLA 0
scalar FogNoLB.fog[51].server[0] droppedJobsTotal 136380
scalar FogNoLB.fog[52].dispatcher localJobs 582054
scalar FogNoLB.fog[52].dispatcher remoteJobs 0
scalar FogNoLB.fog[52].dispatcher probeQueries 0
scalar FogNoLB.fog[52].dispatcher probeAnswers 0
scalar FogNoLB.fog[52].dispatcher droppedJobsSLA 0
scalar FogNoLB.fog[52].dispatcher jobs_class_1 582054
scalar FogNoLB.fog[52].dispatcher localJobs_class_1 582054
scalar FogNoLB.fog[52].server[0] rho 0.68861776590347
scalar FogNoLB.fog[52].server[0] congestionRatio 0
scalar FogNoLB.fog[52].server[0] totalJobs 582054
scalar FogNoLB.fog[52].server[0] droppedJobsQueue 136716
scalar FogNoLB.fog[52].server[0] droppedJobsTimout 0
scalar FogNoLB.fog[52].server[0] droppedJobsSLA 0
scalar FogNoLB.fog[52].server[0] droppedJobsTotal 136716
scalar FogNoLB.fog[53].dispatcher localJobs 582625
scalar FogNoLB.fog[53].dispatcher remoteJobs 0
scalar FogNoLB.fog[53].dispatcher probeQueries 0
scalar FogNoLB.fog[53].dispatcher probeAnswers 0
scalar FogNoLB.fog[53].dispatcher droppedJobsSLA 0
scalar FogNoLB.fog[53].dispatcher jobs_class_1 582625
scalar FogNoLB.fog[53].dispatcher localJobs_class_1 582625
scalar FogNoLB.fog[53].server[0] rho 0.68892461061478
scalar FogNoLB.fog[53].server[0] congestionRatio 0
scalar FogNoLB.fog[53].server[0] totalJobs 582625
scalar FogNoLB.fog[53].server[0] droppedJobsQueue 137104
scalar FogNoLB.fog[53].server[0] droppedJobsTimout 0
scalar FogNoLB.fog[53].server[0] droppedJobsSLA 0
scalar FogNoLB.fog[53].server[0] droppedJobsTotal 137104
scalar FogNoLB.fog[54].dispatcher localJobs 581549
scalar FogNoLB.fog[54].dispatcher remoteJobs 0
scalar FogNoLB.fog[54].dispatcher probeQueries 0
scalar FogNoLB.fog[54].dispatcher probeAnswers 0
scalar FogNoLB.fog[54].dispatcher droppedJobsSLA 0
scalar FogNoLB.fog[54].dispatcher jobs_class_1 581549
scalar FogNoLB.fog[54].dispatcher localJobs_class_1 581549
scalar FogNoLB.fog[54].server[0] rho 0.6879734992981
scalar FogNoLB.fog[54].server[0] congestionRatio 0
scalar FogNoLB.fog[54].server[0] totalJobs 581549
scalar FogNoLB.fog[54].server[0] droppedJobsQueue 136647
scalar FogNoLB.fog[54].server[0] droppedJobsTimout 0
scalar FogNoLB.fog[54].server[0] droppedJobsSLA 0
scalar FogNoLB.fog[54].server[0] droppedJobsTotal 136647
scalar FogNoLB.fog[55].dispatcher localJobs 582068
scalar FogNoLB.fog[55].dispatcher remoteJobs 0
scalar FogNoLB.fog[55].dispatcher probeQueries 0
scalar FogNoLB.fog[55].dispatcher probeAnswers 0
scalar FogNoLB.fog[55].dispatcher droppedJobsSLA 0
scalar FogNoLB.fog[55].dispatcher jobs_class_1 582068
scalar FogNoLB.fog[55].dispatcher localJobs_class_1 582068
scalar FogNoLB.fog[55].server[0] rho 0.68890649080276
scalar FogNoLB.fog[55].server[0] congestionRatio 0
scalar FogNoLB.fog[55].server[0] totalJobs 582068
scalar FogNoLB.fog[55].server[0] droppedJobsQueue 136562
scalar FogNoLB.fog[55].server[0] droppedJobsTimout 0
scalar FogNoLB.fog[55].server[0] droppedJobsSLA 0
scalar FogNoLB.fog[55].server[0] droppedJobsTotal 136562
scalar FogNoLB.fog[56].dispatcher localJobs 582503
scalar FogNoLB.fog[56].dispatcher remoteJobs 0
scalar FogNoLB.fog[56].dispatcher probeQueries 0
scalar FogNoLB.fog[56].dispatcher probeAnswers 0
scalar FogNoLB.fog[56].dispatcher droppedJobsSLA 0
scalar FogNoLB.fog[56].dispatcher jobs_class_1 582503
scalar FogNoLB.fog[56].dispatcher localJobs_class_1 582503
scalar FogNoLB.fog[56].server[0] rho 0.68934923410416
scalar FogNoLB.fog[56].server[0] congestionRatio 0
scalar FogNoLB.fog[56].server[0] totalJobs 582503
scalar FogNoLB.fog[56].server[0] droppedJobsQueue 136666
scalar FogNoLB.fog[56].server[0] droppedJobsTimout 0
scalar FogNoLB.fog[56].server[0] droppedJobsSLA 0
scalar FogNoLB.fog[56].server[0] droppedJobsTotal 136666
scalar FogNoLB.fog[57].dispatcher localJobs 582402
scalar FogNoLB.fog[57].dispatcher remoteJobs 0
scalar FogNoLB.fog[57].dispatcher probeQueries 0
scalar FogNoLB.fog[57].dispatcher probeAnswers 0
scalar FogNoLB.fog[57].dispatcher droppedJobsSLA 0
scalar FogNoLB.fog[57].dispatcher jobs_class_1 582402
scalar FogNoLB.fog[57].dispatcher localJobs_class_1 582402
scalar FogNoLB.fog[57].server[0] rho 0.68963712453842
scalar FogNoLB.fog[57].server[0] congestionRatio 0
scalar FogNoLB.fog[57].server[0] totalJobs 582402
scalar FogNoLB.fog[57].server[0] droppedJobsQueue 136428
scalar FogNoLB.fog[57].server[0] droppedJobsTimout 0
scalar FogNoLB.fog[57].server[0] droppedJobsSLA 0
scalar FogNoLB.fog[57].server[0] droppedJobsTotal 136428
scalar FogNoLB.fog[58].dispatcher localJobs 581284
scalar FogNoLB.fog[58].dispatcher remoteJobs 0
scalar FogNoLB.fog[58].dispatcher probeQueries 0
scalar FogNoLB.fog[58].dispatcher probeAnswers 0
scalar FogNoLB.fog[58].dispatcher droppedJobsSLA 0
scalar FogNoLB.fog[58].dispatcher jobs_class_1 581284
scalar FogNoLB.fog[58].dispatcher localJobs_class_1 581284
scalar FogNoLB.fog[58].server[0] rho 0.68865597248077
scalar FogNoLB.fog[58].server[0] congestionRatio 0
scalar FogNoLB.fog[58].server[0] totalJobs 581284
scalar FogNoLB.fog[58].server[0] droppedJobsQueue 135900
scalar FogNoLB.fog[58].server[0] droppedJobsTimout 0
scalar FogNoLB.fog[58].server[0] droppedJobsSLA 0
scalar FogNoLB.fog[58].server[0] droppedJobsTotal 135900
scalar FogNoLB.fog[59].dispatcher localJobs 581761
scalar FogNoLB.fog[59].dispatcher remoteJobs 0
scalar FogNoLB.fog[59].dispatcher probeQueries 0
scalar FogNoLB.fog[59].dispatcher probeAnswers 0
scalar FogNoLB.fog[59].dispatcher droppedJobsSLA 0
scalar FogNoLB.fog[59].dispatcher jobs_class_1 581761
scalar FogNoLB.fog[59].dispatcher localJobs_class_1 581761
scalar FogNoLB.fog[59].server[0] rho 0.68874317407608
scalar FogNoLB.fog[59].server[0] congestionRatio 0
scalar FogNoLB.fog[59].server[0] totalJobs 581761
scalar FogNoLB.fog[59].server[0] droppedJobsQueue 136353
scalar FogNoLB.fog[59].server[0] droppedJobsTimout 0
scalar FogNoLB.fog[59].server[0] droppedJobsSLA 0
scalar FogNoLB.fog[59].server[0] droppedJobsTotal 136353
scalar FogNoLB.fog[60].dispatcher localJobs 583594
scalar FogNoLB.fog[60].dispatcher remoteJobs 0
scalar FogNoLB.fog[60].dispatcher probeQueries 0
scalar FogNoLB.fog[60].dispatcher probeAnswers 0
scalar FogNoLB.fog[60].dispatcher droppedJobsSLA 0
scalar FogNoLB.fog[60].dispatcher jobs_class_1 583594
scalar FogNoLB.fog[60].dispatcher localJobs_class_1 583594
scalar FogNoLB.fog[60].server[0] rho 0.68989044427872
scalar FogNoLB.fog[60].server[0] congestionRatio 0
scalar FogNoLB.fog[60].server[0] totalJobs 583594
scalar FogNoLB.fog[60].server[0] droppedJobsQueue 137422
scalar FogNoLB.fog[60].server[0] droppedJobsTimout 0
scalar FogNoLB.fog[60].server[0] droppedJobsSLA 0
scalar FogNoLB.fog[60].server[0] droppedJobsTotal 137422
scalar FogNoLB.fog[61].dispatcher localJobs 582148
scalar FogNoLB.fog[61].dispatcher remoteJobs 0
scalar FogNoLB.fog[61].dispatcher probeQueries 0
scalar FogNoLB.fog[61].dispatcher probeAnswers 0
scalar FogNoLB.fog[61].dispatcher droppedJobsSLA 0
scalar FogNoLB.fog[61].dispatcher jobs_class_1 582148
scalar FogNoLB.fog[61].dispatcher localJobs_class_1 582148
scalar FogNoLB.fog[61].server[0] rho 0.68894183635712
scalar FogNoLB.fog[61].server[0] congestionRatio 0
scalar FogNoLB.fog[61].server[0] totalJobs 582148
scalar FogNoLB.fog[61].server[0] droppedJobsQueue 136596
scalar FogNoLB.fog[61].server[0] droppedJobsTimout 0
scalar FogNoLB.fog[61].server[0] droppedJobsSLA 0
scalar FogNoLB.fog[61].server[0] droppedJobsTotal 136596
scalar FogNoLB.fog[62].dispatcher localJobs 582386
scalar FogNoLB.fog[62].dispatcher remoteJobs 0
scalar FogNoLB.fog[62].dispatcher probeQueries 0
scalar FogNoLB.fog[62].dispatcher probeAnswers 0
scalar FogNoLB.fog[62].dispatcher droppedJobsSLA 0
scalar FogNoLB.fog[62].dispatcher jobs_class_1 582386
scalar FogNoLB.fog[62].dispatcher localJobs_class_1 582386
scalar FogNoLB.fog[62].server[0] rho 0.68851274251938
scalar FogNoLB.fog[62].server[0] congestionRatio 0
scalar FogNoLB.fog[62].server[0] totalJobs 582386
scalar FogNoLB.fog[62].server[0] droppedJobsQueue 137119
scalar FogNoLB.fog[62].server[0] droppedJobsTimout 0
scalar FogNoLB.fog[62].server[0] droppedJobsSLA 0
scalar FogNoLB.fog[62].server[0] droppedJobsTotal 137119
scalar FogNoLB.fog[63].dispatcher localJobs 581406
scalar FogNoLB.fog[63].dispatcher remoteJobs 0
scalar FogNoLB.fog[63].dispatcher probeQueries 0
scalar FogNoLB.fog[63].dispatcher probeAnswers 0
scalar FogNoLB.fog[63].dispatcher droppedJobsSLA 0
scalar FogNoLB.fog[63].dispatcher jobs_class_1 581406
scalar FogNoLB.fog[63].dispatcher localJobs_class_1 581406
scalar FogNoLB.fog[63].server[0] rho 0.68877267837524
scalar FogNoLB.fog[63].server[0] congestionRatio 0
scalar FogNoLB.fog[63].server[0] totalJobs 581406
scalar FogNoLB.fog[63].server[0] droppedJobsQueue 135948
scalar FogNoLB.fog[63].server[0] droppedJobsTimout 0
scalar FogNoLB.fog[63].server[0] droppedJobsSLA 0
scalar FogNoLB.fog[63].server[0] droppedJobsTotal 135948
scalar FogNoLB.fog[64].dispatcher localJobs 582042
scalar FogNoLB.fog[64].dispatcher remoteJobs 0
scalar FogNoLB.fog[64].dispatcher probeQueries 0
scalar FogNoLB.fog[64].dispatcher probeAnswers 0
scalar FogNoLB.fog[64].dispatcher droppedJobsSLA 0
scalar FogNoLB.fog[64].dispatcher jobs_class_1 582042
scalar FogNoLB.fog[64].dispatcher localJobs_class_1 582042
scalar FogNoLB.fog[64].server[0] rho 0.68928438425064
scalar FogNoLB.fog[64].server[0] congestionRatio 0
scalar FogNoLB.fog[64].server[0] totalJobs 582042
scalar FogNoLB.fog[64].server[0] droppedJobsQueue 136267
scalar FogNoLB.fog[64].server[0] droppedJobsTimout 0
scalar FogNoLB.fog[64].server[0] droppedJobsSLA 0
scalar FogNoLB.fog[64].server[0] droppedJobsTotal 136267
scalar FogNoLB.fog[65].dispatcher localJobs 582377
scalar FogNoLB.fog[65].dispatcher remoteJobs 0
scalar FogNoLB.fog[65].dispatcher probeQueries 0
scalar FogNoLB.fog[65].dispatcher probeAnswers 0
scalar FogNoLB.fog[65].dispatcher droppedJobsSLA 0
scalar FogNoLB.fog[65].dispatcher jobs_class_1 582377
scalar FogNoLB.fog[65].dispatcher localJobs_class_1 582377
scalar FogNoLB.fog[65].server[0] rho 0.6891713142395
scalar FogNoLB.fog[65].server[0] congestionRatio 0
scalar FogNoLB.fog[65].server[0] totalJobs 582377
scalar FogNoLB.fog[65].server[0] droppedJobsQueue 136680
scalar FogNoLB.fog[65].server[0] droppedJobsTimout 0
scalar FogNoLB.fog[65].server[0] droppedJobsSLA 0
scalar FogNoLB.fog[65].server[0] droppedJobsTotal 136680
scalar FogNoLB.fog[66].dispatcher localJobs 582805
scalar FogNoLB.fog[66].dispatcher remoteJobs 0
scalar FogNoLB.fog[66].dispatcher probeQueries 0
scalar FogNoLB.fog[66].dispatcher probeAnswers 0
scalar FogNoLB.fog[66].dispatcher droppedJobsSLA 0
scalar FogNoLB.fog[66].dispatcher jobs_class_1 582805
scalar FogNoLB.fog[66].dispatcher localJobs_class_1 582805
scalar FogNoLB.fog[66].server[0] rho 0.68952262401581
scalar FogNoLB.fog[66].server[0] congestionRatio 0
scalar FogNoLB.fog[66].server[0] totalJobs 582805
scalar FogNoLB.fog[66].server[0] droppedJobsQueue 136872
scalar FogNoLB.fog[66].server[0] droppedJobsTimout 0
scalar FogNoLB.fog[66].server[0] droppedJobsSLA 0
scalar FogNoLB.fog[66].server[0] droppedJobsTotal 136872
scalar FogNoLB.fog[67].dispatcher localJobs 582389
scalar FogNoLB.fog[67].dispatcher remoteJobs 0
scalar FogNoLB.fog[67].dispatcher probeQueries 0
scalar FogNoLB.fog[67].dispatcher probeAnswers 0
scalar FogNoLB.fog[67].dispatcher droppedJobsSLA 0
scalar FogNoLB.fog[67].dispatcher jobs_class_1 582389
scalar FogNoLB.fog[67].dispatcher localJobs_class_1 582389
scalar FogNoLB.fog[67].server[0] rho 0.68903136253357
scalar FogNoLB.fog[67].server[0] congestionRatio 0
scalar FogNoLB.fog[67].server[0] totalJobs 582389
scalar FogNoLB.fog[67].server[0] droppedJobsQueue 136794
scalar FogNoLB.fog[67].server[0] droppedJobsTimout 0
scalar FogNoLB.fog[67].server[0] droppedJobsSLA 0
scalar FogNoLB.fog[67].server[0] droppedJobsTotal 136794
scalar FogNoLB.fog[68].dispatcher localJobs 583195
scalar FogNoLB.fog[68].dispatcher remoteJobs 0
scalar FogNoLB.fog[68].dispatcher probeQueries 0
scalar FogNoLB.fog[68].dispatcher probeAnswers 0
scalar FogNoLB.fog[68].dispatcher droppedJobsSLA 0
scalar FogNoLB.fog[68].dispatcher jobs_class_1 583195
scalar FogNoLB.fog[68].dispatcher localJobs_class_1 583195
scalar FogNoLB.fog[68].server[0] rho 0.68940401077271
scalar FogNoLB.fog[68].server[0] congestionRatio 0
scalar FogNoLB.fog[68].server[0] totalJobs 583195
scalar FogNoLB.fog[68].server[0] droppedJobsQueue 137343
scalar FogNoLB.fog[68].server[0] droppedJobsTimout 0
scalar FogNoLB.fog[68].server[0] droppedJobsSLA 0
scalar FogNoLB.fog[68].server[0] droppedJobsTotal 137343
scalar FogNoLB.fog[69].dispatcher localJobs 582619
scalar FogNoLB.fog[69].dispatcher remoteJobs 0
scalar FogNoLB.fog[69].dispatcher probeQueries 0
scalar FogNoLB.fog[69].dispatcher probeAnswers 0
scalar FogNoLB.fog[69].dispatcher droppedJobsSLA 0
scalar FogNoLB.fog[69].dispatcher jobs_class_1 582619
scalar FogNoLB.fog[69].dispatcher localJobs_class_1 582619
scalar FogNoLB.fog[69].server[0] rho 0.68934553861618
scalar FogNoLB.fog[69].server[0] congestionRatio 0
scalar FogNoLB.fog[69].server[0] totalJobs 582619
scalar FogNoLB.fog[69].server[0] droppedJobsQueue 136799
scalar FogNoLB.fog[69].server[0] droppedJobsTimout 0
scalar FogNoLB.fog[69].server[0] droppedJobsSLA 0
scalar FogNoLB.fog[69].server[0] droppedJobsTotal 136799
scalar FogNoLB.fog[70].dispatcher localJobs 581190
scalar FogNoLB.fog[70].dispatcher remoteJobs 0
scalar FogNoLB.fog[70].dispatcher probeQueries 0
scalar FogNoLB.fog[70].dispatcher probeAnswers 0
scalar FogNoLB.fog[70].dispatcher droppedJobsSLA 0
scalar FogNoLB.fog[70].dispatcher jobs_class_1 581190
scalar FogNoLB.fog[70].dispatcher localJobs_class_1 581190
scalar FogNoLB.fog[70].server[0] rho 0.68873566389084
scalar FogNoLB.fog[70].server[0] congestionRatio 0
scalar FogNoLB.fog[70].server[0] totalJobs 581190
scalar FogNoLB.fog[70].server[0] droppedJobsQueue 135786
scalar FogNoLB.fog[70].server[0] droppedJobsTimout 0
scalar FogNoLB.fog[70].server[0] droppedJobsSLA 0
scalar FogNoLB.fog[70].server[0] droppedJobsTotal 135786
scalar FogNoLB.fog[71].dispatcher localJobs 581612
scalar FogNoLB.fog[71].dispatcher remoteJobs 0
scalar FogNoLB.fog[71].dispatcher probeQueries 0
scalar FogNoLB.fog[71].dispatcher probeAnswers 0
scalar FogNoLB.fog[71].dispatcher droppedJobsSLA 0
scalar FogNoLB.fog[71].dispatcher jobs_class_1 581612
scalar FogNoLB.fog[71].dispatcher localJobs_class_1 581612
scalar FogNoLB.fog[71].server[0] rho 0.68866765499115
scalar FogNoLB.fog[71].server[0] congestionRatio 0
scalar FogNoLB.fog[71].server[0] totalJobs 581612
scalar FogNoLB.fog[71].server[0] droppedJobsQueue 136216
scalar FogNoLB.fog[71].server[0] droppedJobsTimout 0
scalar FogNoLB.fog[71].server[0] droppedJobsSLA 0
scalar FogNoLB.fog[71].server[0] droppedJobsTotal 136216
scalar FogNoLB.fog[72].dispatcher localJobs 580852
scalar FogNoLB.fog[72].dispatcher remoteJobs 0
scalar FogNoLB.fog[72].dispatcher probeQueries 0
scalar FogNoLB.fog[72].dispatcher probeAnswers 0
scalar FogNoLB.fog[72].dispatcher droppedJobsSLA 0
scalar FogNoLB.fog[72].dispatcher jobs_class_1 580852
scalar FogNoLB.fog[72].dispatcher localJobs_class_1 580852
scalar FogNoLB.fog[72].server[0] rho 0.68699568510056
scalar FogNoLB.fog[72].server[0] congestionRatio 0
scalar FogNoLB.fog[72].server[0] totalJobs 580852
scalar FogNoLB.fog[72].server[0] droppedJobsQueue 136560
scalar FogNoLB.fog[72].server[0] droppedJobsTimout 0
scalar FogNoLB.fog[72].server[0] droppedJobsSLA 0
scalar FogNoLB.fog[72].server[0] droppedJobsTotal 136560
scalar FogNoLB.fog[73].dispatcher localJobs 582646
scalar FogNoLB.fog[73].dispatcher remoteJobs 0
scalar FogNoLB.fog[73].dispatcher probeQueries 0
scalar FogNoLB.fog[73].dispatcher probeAnswers 0
scalar FogNoLB.fog[73].dispatcher droppedJobsSLA 0
scalar FogNoLB.fog[73].dispatcher jobs_class_1 582646
scalar FogNoLB.fog[73].dispatcher localJobs_class_1 582646
scalar FogNoLB.fog[73].server[0] rho 0.68956708908081
scalar FogNoLB.fog[73].server[0] congestionRatio 0
scalar FogNoLB.fog[73].server[0] totalJobs 582646
scalar FogNoLB.fog[73].server[0] droppedJobsQueue 136701
scalar FogNoLB.fog[73].server[0] droppedJobsTimout 0
scalar FogNoLB.fog[73].server[0] droppedJobsSLA 0
scalar FogNoLB.fog[73].server[0] droppedJobsTotal 136701
scalar FogNoLB.fog[74].dispatcher localJobs 582385
scalar FogNoLB.fog[74].dispatcher remoteJobs 0
scalar FogNoLB.fog[74].dispatcher probeQueries 0
scalar FogNoLB.fog[74].dispatcher probeAnswers 0
scalar FogNoLB.fog[74].dispatcher droppedJobsSLA 0
scalar FogNoLB.fog[74].dispatcher jobs_class_1 582385
scalar FogNoLB.fog[74].dispatcher localJobs_class_1 582385
scalar FogNoLB.fog[74].server[0] rho 0.68906784057617
scalar FogNoLB.fog[74].server[0] congestionRatio 0
scalar FogNoLB.fog[74].server[0] totalJobs 582385
scalar FogNoLB.fog[74].server[0] droppedJobsQueue 136772
scalar FogNoLB.fog[74].server[0] droppedJobsTimout 0
scalar FogNoLB.fog[74].server[0] droppedJobsSLA 0
scalar FogNoLB.fog[74].server[0] droppedJobsTotal 136772
scalar FogNoLB.fog[75].dispatcher localJobs 581437
scalar FogNoLB.fog[75].dispatcher remoteJobs 0
scalar FogNoLB.fog[75].dispatcher probeQueries 0
scalar FogNoLB.fog[75].dispatcher probeAnswers 0
scalar FogNoLB.fog[75].dispatcher droppedJobsSLA 0
scalar FogNoLB.fog[75].dispatcher jobs_class_1 581437
scalar FogNoLB.fog[75].dispatcher localJobs_class_1 581437
scalar FogNoLB.fog[75].server[0] rho 0.68859165906906
scalar FogNoLB.fog[75].server[0] congestionRatio 0
scalar FogNoLB.fog[75].server[0] totalJobs 581437
scalar FogNoLB.fog[75].server[0] droppedJobsQueue 136143
scalar FogNoLB.fog[75].server[0] droppedJobsTimout 0
scalar FogNoLB.fog[75].server[0] droppedJobsSLA 0
scalar FogNoLB.fog[75].server[0] droppedJobsTotal 136143
scalar FogNoLB.fog[76].dispatcher localJobs 583743
scalar FogNoLB.fog[76].dispatcher remoteJobs 0
scalar FogNoLB.fog[76].dispatcher probeQueries 0
scalar FogNoLB.fog[76].dispatcher probeAnswers 0
scalar FogNoLB.fog[76].dispatcher droppedJobsSLA 0
scalar FogNoLB.fog[76].dispatcher jobs_class_1 583743
scalar FogNoLB.fog[76].dispatcher localJobs_class_1 583743
scalar FogNoLB.fog[76].server[0] rho 0.69019418954849
scalar FogNoLB.fog[76].server[0] congestionRatio 0
scalar FogNoLB.fog[76].server[0] totalJobs 583743
scalar FogNoLB.fog[76].server[0] droppedJobsQueue 137407
scalar FogNoLB.fog[76].server[0] droppedJobsTimout 0
scalar FogNoLB.fog[76].server[0] droppedJobsSLA 0
scalar FogNoLB.fog[76].server[0] droppedJobsTotal 137407
scalar FogNoLB.fog[77].dispatcher localJobs 580398
scalar FogNoLB.fog[77].dispatcher remoteJobs 0
scalar FogNoLB.fog[77].dispatcher probeQueries 0
scalar FogNoLB.fog[77].dispatcher probeAnswers 0
scalar FogNoLB.fog[77].dispatcher droppedJobsSLA 0
scalar FogNoLB.fog[77].dispatcher jobs_class_1 580398
scalar FogNoLB.fog[77].dispatcher localJobs_class_1 580398
scalar FogNoLB.fog[77].server[0] rho 0.68793761730194
scalar FogNoLB.fog[77].server[0] congestionRatio 0
scalar FogNoLB.fog[77].server[0] totalJobs 580398
scalar FogNoLB.fog[77].server[0] droppedJobsQueue 135507
scalar FogNoLB.fog[77].server[0] droppedJobsTimout 0
scalar FogNoLB.fog[77].server[0] droppedJobsSLA 0
scalar FogNoLB.fog[77].server[0] droppedJobsTotal 135507
scalar FogNoLB.fog[78].dispatcher localJobs 582433
scalar FogNoLB.fog[78].dispatcher remoteJobs 0
scalar FogNoLB.fog[78].dispatcher probeQueries 0
scalar FogNoLB.fog[78].dispatcher probeAnswers 0
scalar FogNoLB.fog[78].dispatcher droppedJobsSLA 0
scalar FogNoLB.fog[78].dispatcher jobs_class_1 582433
scalar FogNoLB.fog[78].dispatcher localJobs_class_1 582433
scalar FogNoLB.fog[78].server[0] rho 0.68873256444931
scalar FogNoLB.fog[78].server[0] congestionRatio 0
scalar FogNoLB.fog[78].server[0] totalJobs 582433
scalar FogNoLB.fog[78].server[0] droppedJobsQueue 137015
scalar FogNoLB.fog[78].server[0] droppedJobsTimout 0
scalar FogNoLB.fog[78].server[0] droppedJobsSLA 0
scalar FogNoLB.fog[78].server[0] droppedJobsTotal 137015
scalar FogNoLB.fog[79].dispatcher localJobs 582719
scalar FogNoLB.fog[79].dispatcher remoteJobs 0
scalar FogNoLB.fog[79].dispatcher probeQueries 0
scalar FogNoLB.fog[79].dispatcher probeAnswers 0
scalar FogNoLB.fog[79].dispatcher droppedJobsSLA 0
scalar FogNoLB.fog[79].dispatcher jobs_class_1 582719
scalar FogNoLB.fog[79].dispatcher localJobs_class_1 582719
scalar FogNoLB.fog[79].server[0] rho 0.68961864709854
scalar FogNoLB.fog[79].server[0] congestionRatio 0
scalar FogNoLB.fog[79].server[0] totalJobs 582719
scalar FogNoLB.fog[79].server[0] droppedJobsQueue 136742
scalar FogNoLB.fog[79].server[0] droppedJobsTimout 0
scalar FogNoLB.fog[79].server[0] droppedJobsSLA 0
scalar FogNoLB.fog[79].server[0] droppedJobsTotal 136742
scalar FogNoLB.fog[80].dispatcher localJobs 582830
scalar FogNoLB.fog[80].dispatcher remoteJobs 0
scalar FogNoLB.fog[80].dispatcher probeQueries 0
scalar FogNoLB.fog[80].dispatcher probeAnswers 0
scalar FogNoLB.fog[80].dispatcher droppedJobsSLA 0
scalar FogNoLB.fog[80].dispatcher jobs_class_1 582830
scalar FogNoLB.fog[80].dispatcher localJobs_class_1 582830
scalar FogNoLB.fog[80].server[0] rho 0.6892666220665
scalar FogNoLB.fog[80].server[0] congestionRatio 0
scalar FogNoLB.fog[80].server[0] totalJobs 582830
scalar FogNoLB.fog[80].server[0] droppedJobsQueue 137043
scalar FogNoLB.fog[80].server[0] droppedJobsTimout 0
scalar FogNoLB.fog[80].server[0] droppedJobsSLA 0
scalar FogNoLB.fog[80].server[0] droppedJobsTotal 137043
scalar FogNoLB.fog[81].dispatcher localJobs 581281
scalar FogNoLB.fog[81].dispatcher remoteJobs 0
scalar FogNoLB.fog[81].dispatcher probeQueries 0
scalar FogNoLB.fog[81].dispatcher probeAnswers 0
scalar FogNoLB.fog[81].dispatcher droppedJobsSLA 0
scalar FogNoLB.fog[81].dispatcher jobs_class_1 581281
scalar FogNoLB.fog[81].dispatcher localJobs_class_1 581281
scalar FogNoLB.fog[81].server[0] rho 0.68817520141602
scalar FogNoLB.fog[81].server[0] congestionRatio 0
scalar FogNoLB.fog[81].server[0] totalJobs 581281
scalar FogNoLB.fog[81].server[0] droppedJobsQueue 136223
scalar FogNoLB.fog[81].server[0] droppedJobsTimout 0
scalar FogNoLB.fog[81].server[0] droppedJobsSLA 0
scalar FogNoLB.fog[81].server[0] droppedJobsTotal 136223
scalar FogNoLB.fog[82].dispatcher localJobs 581594
scalar FogNoLB.fog[82].dispatcher remoteJobs 0
scalar FogNoLB.fog[82].dispatcher probeQueries 0
scalar FogNoLB.fog[82].dispatcher probeAnswers 0
scalar FogNoLB.fog[82].dispatcher droppedJobsSLA 0
scalar FogNoLB.fog[82].dispatcher jobs_class_1 581594
scalar FogNoLB.fog[82].dispatcher localJobs_class_1 581594
scalar FogNoLB.fog[82].server[0] rho 0.68824809789658
scalar FogNoLB.fog[82].server[0] congestionRatio 0
scalar FogNoLB.fog[82].server[0] totalJobs 581594
scalar FogNoLB.fog[82].server[0] droppedJobsQueue 136486
scalar FogNoLB.fog[82].server[0] droppedJobsTimout 0
scalar FogNoLB.fog[82].server[0] droppedJobsSLA 0
scalar FogNoLB.fog[82].server[0] droppedJobsTotal 136486
scalar FogNoLB.fog[83].dispatcher localJobs 581859
scalar FogNoLB.fog[83].dispatcher remoteJobs 0
scalar FogNoLB.fog[83].dispatcher probeQueries 0
scalar FogNoLB.fog[83].dispatcher probeAnswers 0
scalar FogNoLB.fog[83].dispatcher droppedJobsSLA 0
scalar FogNoLB.fog[83].dispatcher jobs_class_1 581859
scalar FogNoLB.fog[83].dispatcher localJobs_class_1 581859
scalar FogNoLB.fog[83].server[0] rho 0.68876630067825
scalar FogNoLB.fog[83].server[0] congestionRatio 0
scalar FogNoLB.fog[83].server[0] totalJobs 581859
scalar FogNoLB.fog[83].server[0] droppedJobsQueue 136428
scalar FogNoLB.fog[83].server[0] droppedJobsTimout 0
scalar FogNoLB.fog[83].server[0] droppedJobsSLA 0
scalar FogNoLB.fog[83].server[0] droppedJobsTotal 136428
scalar FogNoLB.fog[84].dispatcher localJobs 582490
scalar FogNoLB.fog[84].dispatcher remoteJobs 0
scalar FogNoLB.fog[84].dispatcher probeQueries 0
scalar FogNoLB.fog[84].dispatcher probeAnswers 0
scalar FogNoLB.fog[84].dispatcher droppedJobsSLA 0
scalar FogNoLB.fog[84].dispatcher jobs_class_1 582490
scalar FogNoLB.fog[84].dispatcher localJobs_class_1 582490
scalar FogNoLB.fog[84].server[0] rho 0.68955308198929
scalar FogNoLB.fog[84].server[0] congestionRatio 0
scalar FogNoLB.fog[84].server[0] totalJobs 582490
scalar FogNoLB.fog[84].server[0] droppedJobsQueue 136561
scalar FogNoLB.fog[84].server[0] droppedJobsTimout 0
scalar FogNoLB.fog[84].server[0] droppedJobsSLA 0
scalar FogNoLB.fog[84].server[0] droppedJobsTotal 136561
scalar FogNoLB.fog[85].dispatcher localJobs 582408
scalar FogNoLB.fog[85].dispatcher remoteJobs 0
scalar FogNoLB.fog[85].dispatcher probeQueries 0
scalar FogNoLB.fog[85].dispatcher probeAnswers 0
scalar FogNoLB.fog[85].dispatcher droppedJobsSLA 0
scalar FogNoLB.fog[85].dispatcher jobs_class_1 582408
scalar FogNoLB.fog[85].dispatcher localJobs_class_1 582408
scalar FogNoLB.fog[85].server[0] rho 0.68914258480072
scalar FogNoLB.fog[85].server[0] congestionRatio 0
scalar FogNoLB.fog[85].server[0] totalJobs 582408
scalar FogNoLB.fog[85].server[0] droppedJobsQueue 136725
scalar FogNoLB.fog[85].server[0] droppedJobsTimout 0
scalar FogNoLB.fog[85].server[0] droppedJobsSLA 0
scalar FogNoLB.fog[85].server[0] droppedJobsTotal 136725
scalar FogNoLB.fog[86].dispatcher localJobs 581447
scalar FogNoLB.fog[86].dispatcher remoteJobs 0
scalar FogNoLB.fog[86].dispatcher probeQueries 0
scalar FogNoLB.fog[86].dispatcher probeAnswers 0
scalar FogNoLB.fog[86].dispatcher droppedJobsSLA 0
scalar FogNoLB.fog[86].dispatcher jobs_class_1 581447
scalar FogNoLB.fog[86].dispatcher localJobs_class_1 581447
scalar FogNoLB.fog[86].server[0] rho 0.68885487318039
scalar FogNoLB.fog[86].server[0] congestionRatio 0
scalar FogNoLB.fog[86].server[0] totalJobs 581447
scalar FogNoLB.fog[86].server[0] droppedJobsQueue 135958
scalar FogNoLB.fog[86].server[0] droppedJobsTimout 0
scalar FogNoLB.fog[86].server[0] droppedJobsSLA 0
scalar FogNoLB.fog[86].server[0] droppedJobsTotal 135958
scalar FogNoLB.fog[87].dispatcher localJobs 583010
scalar FogNoLB.fog[87].dispatcher remoteJobs 0
scalar FogNoLB.fog[87].dispatcher probeQueries 0
scalar FogNoLB.fog[87].dispatcher probeAnswers 0
scalar FogNoLB.fog[87].dispatcher droppedJobsSLA 0
scalar FogNoLB.fog[87].dispatcher jobs_class_1 583010
scalar FogNoLB.fog[87].dispatcher localJobs_class_1 583010
scalar FogNoLB.fog[87].server[0] rho 0.68977785110474
scalar FogNoLB.fog[87].server[0] congestionRatio 0
scalar FogNoLB.fog[87].server[0] totalJobs 583010
scalar FogNoLB.fog[87].server[0] droppedJobsQueue 136919
scalar FogNoLB.fog[87].server[0] droppedJobsTimout 0
scalar FogNoLB.fog[87].server[0] droppedJobsSLA 0
scalar FogNoLB.fog[87].server[0] droppedJobsTotal 136919
scalar FogNoLB.fog[88].dispatcher localJobs 581590
scalar FogNoLB.fog[88].dispatcher remoteJobs 0
scalar FogNoLB.fog[88].dispatcher probeQueries 0
scalar FogNoLB.fog[88].dispatcher probeAnswers 0
scalar FogNoLB.fog[88].dispatcher droppedJobsSLA 0
scalar FogNoLB.fog[88].dispatcher jobs_class_1 581590
scalar FogNoLB.fog[88].dispatcher localJobs_class_1 581590
scalar FogNoLB.fog[88].server[0] rho 0.68888342380524
scalar FogNoLB.fog[88].server[0] congestionRatio 0
scalar FogNoLB.fog[88].server[0] totalJobs 581590
scalar FogNoLB.fog[88].server[0] droppedJobsQueue 136086
scalar FogNoLB.fog[88].server[0] droppedJobsTimout 0
scalar FogNoLB.fog[88].server[0] droppedJobsSLA 0
scalar FogNoLB.fog[88].server[0] droppedJobsTotal 136086
scalar FogNoLB.fog[89].dispatcher localJobs 581640
scalar FogNoLB.fog[89].dispatcher remoteJobs 0
scalar FogNoLB.fog[89].dispatcher probeQueries 0
scalar FogNoLB.fog[89].dispatcher probeAnswers 0
scalar FogNoLB.fog[89].dispatcher droppedJobsSLA 0
scalar FogNoLB.fog[89].dispatcher jobs_class_1 581640
scalar FogNoLB.fog[89].dispatcher localJobs_class_1 581640
scalar FogNoLB.fog[89].server[0] rho 0.68885254859924
scalar FogNoLB.fog[89].server[0] congestionRatio 0
scalar FogNoLB.fog[89].server[0] totalJobs 581640
scalar FogNoLB.fog[89].server[0] droppedJobsQueue 136148
scalar FogNoLB.fog[89].server[0] droppedJobsTimout 0
scalar FogNoLB.fog[89].server[0] droppedJobsSLA 0
scalar FogNoLB.fog[89].server[0] droppedJobsTotal 136148
scalar FogNoLB.fog[90].dispatcher localJobs 581650
scalar FogNoLB.fog[90].dispatcher remoteJobs 0
scalar FogNoLB.fog[90].dispatcher probeQueries 0
scalar FogNoLB.fog[90].dispatcher probeAnswers 0
scalar FogNoLB.fog[90].dispatcher droppedJobsSLA 0
scalar FogNoLB.fog[90].dispatcher jobs_class_1 581650
scalar FogNoLB.fog[90].dispatcher localJobs_class_1 581650
scalar FogNoLB.fog[90].server[0] rho 0.68820631504059
scalar FogNoLB.fog[90].server[0] congestionRatio 0
scalar FogNoLB.fog[90].server[0] totalJobs 581650
scalar FogNoLB.fog[90].server[0] droppedJobsQueue 136576
scalar FogNoLB.fog[90].server[0] droppedJobsTimout 0
scalar FogNoLB.fog[90].server[0] droppedJobsSLA 0
scalar FogNoLB.fog[90].server[0] droppedJobsTotal 136576
scalar FogNoLB.fog[91].dispatcher localJobs 583795
scalar FogNoLB.fog[91].dispatcher remoteJobs 0
scalar FogNoLB.fog[91].dispatcher probeQueries 0
scalar FogNoLB.fog[91].dispatcher probeAnswers 0
scalar FogNoLB.fog[91].dispatcher droppedJobsSLA 0
scalar FogNoLB.fog[91].dispatcher jobs_class_1 583795
scalar FogNoLB.fog[91].dispatcher localJobs_class_1 583795
scalar FogNoLB.fog[91].server[0] rho 0.68982148170471
scalar FogNoLB.fog[91].server[0] congestionRatio 0
scalar FogNoLB.fog[91].server[0] totalJobs 583795
scalar FogNoLB.fog[91].server[0] droppedJobsQueue 137682
scalar FogNoLB.fog[91].server[0] droppedJobsTimout 0
scalar FogNoLB.fog[91].server[0] droppedJobsSLA 0
scalar FogNoLB.fog[91].server[0] droppedJobsTotal 137682
scalar FogNoLB.fog[92].dispatcher localJobs 582382
scalar FogNoLB.fog[92].dispatcher remoteJobs 0
scalar FogNoLB.fog[92].dispatcher probeQueries 0
scalar FogNoLB.fog[92].dispatcher probeAnswers 0
scalar FogNoLB.fog[92].dispatcher droppedJobsSLA 0
scalar FogNoLB.fog[92].dispatcher jobs_class_1 582382
scalar FogNoLB.fog[92].dispatcher localJobs_class_1 582382
scalar FogNoLB.fog[92].server[0] rho 0.68937170505524
scalar FogNoLB.fog[92].server[0] congestionRatio 0
scalar FogNoLB.fog[92].server[0] totalJobs 582382
scalar FogNoLB.fog[92].server[0] droppedJobsQueue 136566
scalar FogNoLB.fog[92].server[0] droppedJobsTimout 0
scalar FogNoLB.fog[92].server[0] droppedJobsSLA 0
scalar FogNoLB.fog[92].server[0] droppedJobsTotal 136566
scalar FogNoLB.fog[93].dispatcher localJobs 582938
scalar FogNoLB.fog[93].dispatcher remoteJobs 0
scalar FogNoLB.fog[93].dispatcher probeQueries 0
scalar FogNoLB.fog[93].dispatcher probeAnswers 0
scalar FogNoLB.fog[93].dispatcher droppedJobsSLA 0
scalar FogNoLB.fog[93].dispatcher jobs_class_1 582938
scalar FogNoLB.fog[93].dispatcher localJobs_class_1 582938
scalar FogNoLB.fog[93].server[0] rho 0.68947088718414
scalar FogNoLB.fog[93].server[0] congestionRatio 0
scalar FogNoLB.fog[93].server[0] totalJobs 582938
scalar FogNoLB.fog[93].server[0] droppedJobsQueue 137038
scalar FogNoLB.fog[93].server[0] droppedJobsTimout 0
scalar FogNoLB.fog[93].server[0] droppedJobsSLA 0
scalar FogNoLB.fog[93].server[0] droppedJobsTotal 137038
scalar FogNoLB.fog[94].dispatcher localJobs 581790
scalar FogNoLB.fog[94].dispatcher remoteJobs 0
scalar FogNoLB.fog[94].dispatcher probeQueries 0
scalar FogNoLB.fog[94].dispatcher probeAnswers 0
scalar FogNoLB.fog[94].dispatcher droppedJobsSLA 0
scalar FogNoLB.fog[94].dispatcher jobs_class_1 581790
scalar FogNoLB.fog[94].dispatcher localJobs_class_1 581790
scalar FogNoLB.fog[94].server[0] rho 0.68825739622116
scalar FogNoLB.fog[94].server[0] congestionRatio 0
scalar FogNoLB.fog[94].server[0] totalJobs 581790
scalar FogNoLB.fog[94].server[0] droppedJobsQueue 136695
scalar FogNoLB.fog[94].server[0] droppedJobsTimout 0
scalar FogNoLB.fog[94].server[0] droppedJobsSLA 0
scalar FogNoLB.fog[94].server[0] droppedJobsTotal 136695
scalar FogNoLB.fog[95].dispatcher localJobs 582883
scalar FogNoLB.fog[95].dispatcher remoteJobs 0
scalar FogNoLB.fog[95].dispatcher probeQueries 0
scalar FogNoLB.fog[95].dispatcher probeAnswers 0
scalar FogNoLB.fog[95].dispatcher droppedJobsSLA 0
scalar FogNoLB.fog[95].dispatcher jobs_class_1 582883
scalar FogNoLB.fog[95].dispatcher localJobs_class_1 582883
scalar FogNoLB.fog[95].server[0] rho 0.689517557621
scalar FogNoLB.fog[95].server[0] congestionRatio 0
scalar FogNoLB.fog[95].server[0] totalJobs 582883
scalar FogNoLB.fog[95].server[0] droppedJobsQueue 136971
scalar FogNoLB.fog[95].server[0] droppedJobsTimout 0
scalar FogNoLB.fog[95].server[0] droppedJobsSLA 0
scalar FogNoLB.fog[95].server[0] droppedJobsTotal 136971
scalar FogNoLB.fog[96].dispatcher localJobs 581142
scalar FogNoLB.fog[96].dispatcher remoteJobs 0
scalar FogNoLB.fog[96].dispatcher probeQueries 0
scalar FogNoLB.fog[96].dispatcher probeAnswers 0
scalar FogNoLB.fog[96].dispatcher droppedJobsSLA 0
scalar FogNoLB.fog[96].dispatcher jobs_class_1 581142
scalar FogNoLB.fog[96].dispatcher localJobs_class_1 581142
scalar FogNoLB.fog[96].server[0] rho 0.68813943862915
scalar FogNoLB.fog[96].server[0] congestionRatio 0
scalar FogNoLB.fog[96].server[0] totalJobs 581142
scalar FogNoLB.fog[96].server[0] droppedJobsQueue 136144
scalar FogNoLB.fog[96].server[0] droppedJobsTimout 0
scalar FogNoLB.fog[96].server[0] droppedJobsSLA 0
scalar FogNoLB.fog[96].server[0] droppedJobsTotal 136144
scalar FogNoLB.fog[97].dispatcher localJobs 584070
scalar FogNoLB.fog[97].dispatcher remoteJobs 0
scalar FogNoLB.fog[97].dispatcher probeQueries 0
scalar FogNoLB.fog[97].dispatcher probeAnswers 0
scalar FogNoLB.fog[97].dispatcher droppedJobsSLA 0
scalar FogNoLB.fog[97].dispatcher jobs_class_1 584070
scalar FogNoLB.fog[97].dispatcher localJobs_class_1 584070
scalar FogNoLB.fog[97].server[0] rho 0.69056743383408
scalar FogNoLB.fog[97].server[0] congestionRatio 0
scalar FogNoLB.fog[97].server[0] totalJobs 584070
scalar FogNoLB.fog[97].server[0] droppedJobsQueue 137481
scalar FogNoLB.fog[97].server[0] droppedJobsTimout 0
scalar FogNoLB.fog[97].server[0] droppedJobsSLA 0
scalar FogNoLB.fog[97].server[0] droppedJobsTotal 137481
scalar FogNoLB.fog[98].dispatcher localJobs 581880
scalar FogNoLB.fog[98].dispatcher remoteJobs 0
scalar FogNoLB.fog[98].dispatcher probeQueries 0
scalar FogNoLB.fog[98].dispatcher probeAnswers 0
scalar FogNoLB.fog[98].dispatcher droppedJobsSLA 0
scalar FogNoLB.fog[98].dispatcher jobs_class_1 581880
scalar FogNoLB.fog[98].dispatcher localJobs_class_1 581880
scalar FogNoLB.fog[98].server[0] rho 0.68894904851913
scalar FogNoLB.fog[98].server[0] congestionRatio 0
scalar FogNoLB.fog[98].server[0] totalJobs 581880
scalar FogNoLB.fog[98].server[0] droppedJobsQueue 136315
scalar FogNoLB.fog[98].server[0] droppedJobsTimout 0
scalar FogNoLB.fog[98].server[0] droppedJobsSLA 0
scalar FogNoLB.fog[98].server[0] droppedJobsTotal 136315
scalar FogNoLB.fog[99].dispatcher localJobs 582068
scalar FogNoLB.fog[99].dispatcher remoteJobs 0
scalar FogNoLB.fog[99].dispatcher probeQueries 0
scalar FogNoLB.fog[99].dispatcher probeAnswers 0
scalar FogNoLB.fog[99].dispatcher droppedJobsSLA 0
scalar FogNoLB.fog[99].dispatcher jobs_class_1 582068
scalar FogNoLB.fog[99].dispatcher localJobs_class_1 582068
scalar FogNoLB.fog[99].server[0] rho 0.68872928619385
scalar FogNoLB.fog[99].server[0] congestionRatio 0
scalar FogNoLB.fog[99].server[0] totalJobs 582068
scalar FogNoLB.fog[99].server[0] droppedJobsQueue 136666
scalar FogNoLB.fog[99].server[0] droppedJobsTimout 0
scalar FogNoLB.fog[99].server[0] droppedJobsSLA 0
scalar FogNoLB.fog[99].server[0] droppedJobsTotal 136666
scalar FogNoLB.sink avg_responseTime_1 0.022388801335342
scalar FogNoLB.sink p90_responseTime_1 0.014789704043
scalar FogNoLB.sink med_responseTime_1 0.014789704043
scalar FogNoLB.sink avg_delayTime_1 0
scalar FogNoLB.sink p90_delayTime_1 0
scalar FogNoLB.sink med_delayTime_1 0
scalar FogNoLB.sink avg_queuingTime_1 0.0056888397027724
scalar FogNoLB.sink p90_queuingTime_1 0
scalar FogNoLB.sink med_queuingTime_1 0
scalar FogNoLB.sink avg_serviceTime_1 0.016699961632567
scalar FogNoLB.sink p90_serviceTime_1 0.014670381127
scalar FogNoLB.sink med_serviceTime_1 0.014670381127
scalar FogNoLB.sink avg_balancerTime_1 0
scalar FogNoLB.sink p90_balancerTime_1 0
scalar FogNoLB.sink med_balancerTime_1 0
scalar FogNoLB.sink avg_balancerCount_1 1
scalar FogNoLB.sink p90_balancerCount_1 1
scalar FogNoLB.sink med_balancerCount_1 1

