version 2
run Fog-mul_1-rho_09-thr_14-4-20190711-22:52:41-64333
attr configname Fog-mul_1-rho_09-thr_14
attr datetime 20190711-22:52:41
attr experiment Fog-mul_1-rho_09-thr_14
attr inifile FogQueueLen.ini
attr iterationvars ""
attr iterationvarsf ""
attr measurement ""
attr network FogNoLB
attr processid 64333
attr repetition 4
attr replication #4
attr resultdir results
attr runnumber 4
attr seedset 4
param FogNoLB.proctimeMul 1
param FogNoLB.rho 0.9
param FogNoLB.fog[*].server[*].capacity 14
param FogNoLB.nSources 100
param FogNoLB.rho 0.9
param FogNoLB.proctimeMul 1.0
param FogNoLB.source[*].appId 1
param FogNoLB.fog[*].nServers 1
param FogNoLB.fog[*].dispatcher.fanOut 1
param FogNoLB.fog[*].server[*].timeSlice -1s
param FogNoLB.fog[*].server[*].capacity 5
param FogNoLB.fog[*].server[*].fifo true
param FogNoLB.fog[*].server[*].maxServiceTime -1s

scalar FogNoLB.fog[0].dispatcher localJobs 5777
scalar FogNoLB.fog[0].dispatcher remoteJobs 0
scalar FogNoLB.fog[0].dispatcher probeQueries 0
scalar FogNoLB.fog[0].dispatcher probeAnswers 0
scalar FogNoLB.fog[0].dispatcher droppedJobsSLA 0
scalar FogNoLB.fog[0].dispatcher jobs_class_1 5777
scalar FogNoLB.fog[0].dispatcher localJobs_class_1 5777
scalar FogNoLB.fog[0].server[0] rho 0.87795239686966
scalar FogNoLB.fog[0].server[0] congestionRatio 0
scalar FogNoLB.fog[0].server[0] totalJobs 5777
scalar FogNoLB.fog[0].server[0] droppedJobsQueue 11
scalar FogNoLB.fog[0].server[0] droppedJobsTimout 294
scalar FogNoLB.fog[0].server[0] droppedJobsSLA 0
scalar FogNoLB.fog[0].server[0] droppedJobsTotal 305
scalar FogNoLB.fog[1].dispatcher localJobs 5859
scalar FogNoLB.fog[1].dispatcher remoteJobs 0
scalar FogNoLB.fog[1].dispatcher probeQueries 0
scalar FogNoLB.fog[1].dispatcher probeAnswers 0
scalar FogNoLB.fog[1].dispatcher droppedJobsSLA 0
scalar FogNoLB.fog[1].dispatcher jobs_class_1 5859
scalar FogNoLB.fog[1].dispatcher localJobs_class_1 5859
scalar FogNoLB.fog[1].server[0] rho 0.89572316408157
scalar FogNoLB.fog[1].server[0] congestionRatio 0
scalar FogNoLB.fog[1].server[0] totalJobs 5859
scalar FogNoLB.fog[1].server[0] droppedJobsQueue 2
scalar FogNoLB.fog[1].server[0] droppedJobsTimout 264
scalar FogNoLB.fog[1].server[0] droppedJobsSLA 0
scalar FogNoLB.fog[1].server[0] droppedJobsTotal 266
scalar FogNoLB.fog[2].dispatcher localJobs 5798
scalar FogNoLB.fog[2].dispatcher remoteJobs 0
scalar FogNoLB.fog[2].dispatcher probeQueries 0
scalar FogNoLB.fog[2].dispatcher probeAnswers 0
scalar FogNoLB.fog[2].dispatcher droppedJobsSLA 0
scalar FogNoLB.fog[2].dispatcher jobs_class_1 5798
scalar FogNoLB.fog[2].dispatcher localJobs_class_1 5798
scalar FogNoLB.fog[2].server[0] rho 0.8867312669754
scalar FogNoLB.fog[2].server[0] congestionRatio 0
scalar FogNoLB.fog[2].server[0] totalJobs 5798
scalar FogNoLB.fog[2].server[0] droppedJobsQueue 4
scalar FogNoLB.fog[2].server[0] droppedJobsTimout 240
scalar FogNoLB.fog[2].server[0] droppedJobsSLA 0
scalar FogNoLB.fog[2].server[0] droppedJobsTotal 244
scalar FogNoLB.fog[3].dispatcher localJobs 5669
scalar FogNoLB.fog[3].dispatcher remoteJobs 0
scalar FogNoLB.fog[3].dispatcher probeQueries 0
scalar FogNoLB.fog[3].dispatcher probeAnswers 0
scalar FogNoLB.fog[3].dispatcher droppedJobsSLA 0
scalar FogNoLB.fog[3].dispatcher jobs_class_1 5669
scalar FogNoLB.fog[3].dispatcher localJobs_class_1 5669
scalar FogNoLB.fog[3].server[0] rho 0.87077069282532
scalar FogNoLB.fog[3].server[0] congestionRatio 0
scalar FogNoLB.fog[3].server[0] totalJobs 5669
scalar FogNoLB.fog[3].server[0] droppedJobsQueue 3
scalar FogNoLB.fog[3].server[0] droppedJobsTimout 120
scalar FogNoLB.fog[3].server[0] droppedJobsSLA 0
scalar FogNoLB.fog[3].server[0] droppedJobsTotal 123
scalar FogNoLB.fog[4].dispatcher localJobs 5737
scalar FogNoLB.fog[4].dispatcher remoteJobs 0
scalar FogNoLB.fog[4].dispatcher probeQueries 0
scalar FogNoLB.fog[4].dispatcher probeAnswers 0
scalar FogNoLB.fog[4].dispatcher droppedJobsSLA 0
scalar FogNoLB.fog[4].dispatcher jobs_class_1 5737
scalar FogNoLB.fog[4].dispatcher localJobs_class_1 5737
scalar FogNoLB.fog[4].server[0] rho 0.87806004285812
scalar FogNoLB.fog[4].server[0] congestionRatio 0
scalar FogNoLB.fog[4].server[0] totalJobs 5737
scalar FogNoLB.fog[4].server[0] droppedJobsQueue 5
scalar FogNoLB.fog[4].server[0] droppedJobsTimout 187
scalar FogNoLB.fog[4].server[0] droppedJobsSLA 0
scalar FogNoLB.fog[4].server[0] droppedJobsTotal 192
scalar FogNoLB.fog[5].dispatcher localJobs 5806
scalar FogNoLB.fog[5].dispatcher remoteJobs 0
scalar FogNoLB.fog[5].dispatcher probeQueries 0
scalar FogNoLB.fog[5].dispatcher probeAnswers 0
scalar FogNoLB.fog[5].dispatcher droppedJobsSLA 0
scalar FogNoLB.fog[5].dispatcher jobs_class_1 5806
scalar FogNoLB.fog[5].dispatcher localJobs_class_1 5806
scalar FogNoLB.fog[5].server[0] rho 0.88795477151871
scalar FogNoLB.fog[5].server[0] congestionRatio 0
scalar FogNoLB.fog[5].server[0] totalJobs 5806
scalar FogNoLB.fog[5].server[0] droppedJobsQueue 7
scalar FogNoLB.fog[5].server[0] droppedJobsTimout 197
scalar FogNoLB.fog[5].server[0] droppedJobsSLA 0
scalar FogNoLB.fog[5].server[0] droppedJobsTotal 204
scalar FogNoLB.fog[6].dispatcher localJobs 5685
scalar FogNoLB.fog[6].dispatcher remoteJobs 0
scalar FogNoLB.fog[6].dispatcher probeQueries 0
scalar FogNoLB.fog[6].dispatcher probeAnswers 0
scalar FogNoLB.fog[6].dispatcher droppedJobsSLA 0
scalar FogNoLB.fog[6].dispatcher jobs_class_1 5685
scalar FogNoLB.fog[6].dispatcher localJobs_class_1 5685
scalar FogNoLB.fog[6].server[0] rho 0.86649852991104
scalar FogNoLB.fog[6].server[0] congestionRatio 0
scalar FogNoLB.fog[6].server[0] totalJobs 5685
scalar FogNoLB.fog[6].server[0] droppedJobsQueue 9
scalar FogNoLB.fog[6].server[0] droppedJobsTimout 227
scalar FogNoLB.fog[6].server[0] droppedJobsSLA 0
scalar FogNoLB.fog[6].server[0] droppedJobsTotal 236
scalar FogNoLB.fog[7].dispatcher localJobs 5673
scalar FogNoLB.fog[7].dispatcher remoteJobs 0
scalar FogNoLB.fog[7].dispatcher probeQueries 0
scalar FogNoLB.fog[7].dispatcher probeAnswers 0
scalar FogNoLB.fog[7].dispatcher droppedJobsSLA 0
scalar FogNoLB.fog[7].dispatcher jobs_class_1 5673
scalar FogNoLB.fog[7].dispatcher localJobs_class_1 5673
scalar FogNoLB.fog[7].server[0] rho 0.86889296770096
scalar FogNoLB.fog[7].server[0] congestionRatio 0
scalar FogNoLB.fog[7].server[0] totalJobs 5673
scalar FogNoLB.fog[7].server[0] droppedJobsQueue 4
scalar FogNoLB.fog[7].server[0] droppedJobsTimout 150
scalar FogNoLB.fog[7].server[0] droppedJobsSLA 0
scalar FogNoLB.fog[7].server[0] droppedJobsTotal 154
scalar FogNoLB.fog[8].dispatcher localJobs 5858
scalar FogNoLB.fog[8].dispatcher remoteJobs 0
scalar FogNoLB.fog[8].dispatcher probeQueries 0
scalar FogNoLB.fog[8].dispatcher probeAnswers 0
scalar FogNoLB.fog[8].dispatcher droppedJobsSLA 0
scalar FogNoLB.fog[8].dispatcher jobs_class_1 5858
scalar FogNoLB.fog[8].dispatcher localJobs_class_1 5858
scalar FogNoLB.fog[8].server[0] rho 0.88926386833191
scalar FogNoLB.fog[8].server[0] congestionRatio 0
scalar FogNoLB.fog[8].server[0] totalJobs 5858
scalar FogNoLB.fog[8].server[0] droppedJobsQueue 15
scalar FogNoLB.fog[8].server[0] droppedJobsTimout 330
scalar FogNoLB.fog[8].server[0] droppedJobsSLA 0
scalar FogNoLB.fog[8].server[0] droppedJobsTotal 345
scalar FogNoLB.fog[9].dispatcher localJobs 5788
scalar FogNoLB.fog[9].dispatcher remoteJobs 0
scalar FogNoLB.fog[9].dispatcher probeQueries 0
scalar FogNoLB.fog[9].dispatcher probeAnswers 0
scalar FogNoLB.fog[9].dispatcher droppedJobsSLA 0
scalar FogNoLB.fog[9].dispatcher jobs_class_1 5788
scalar FogNoLB.fog[9].dispatcher localJobs_class_1 5788
scalar FogNoLB.fog[9].server[0] rho 0.87930178642273
scalar FogNoLB.fog[9].server[0] congestionRatio 0
scalar FogNoLB.fog[9].server[0] totalJobs 5788
scalar FogNoLB.fog[9].server[0] droppedJobsQueue 14
scalar FogNoLB.fog[9].server[0] droppedJobsTimout 320
scalar FogNoLB.fog[9].server[0] droppedJobsSLA 0
scalar FogNoLB.fog[9].server[0] droppedJobsTotal 334
scalar FogNoLB.fog[10].dispatcher localJobs 5783
scalar FogNoLB.fog[10].dispatcher remoteJobs 0
scalar FogNoLB.fog[10].dispatcher probeQueries 0
scalar FogNoLB.fog[10].dispatcher probeAnswers 0
scalar FogNoLB.fog[10].dispatcher droppedJobsSLA 0
scalar FogNoLB.fog[10].dispatcher jobs_class_1 5783
scalar FogNoLB.fog[10].dispatcher localJobs_class_1 5783
scalar FogNoLB.fog[10].server[0] rho 0.88084715604782
scalar FogNoLB.fog[10].server[0] congestionRatio 0
scalar FogNoLB.fog[10].server[0] totalJobs 5783
scalar FogNoLB.fog[10].server[0] droppedJobsQueue 12
scalar FogNoLB.fog[10].server[0] droppedJobsTimout 245
scalar FogNoLB.fog[10].server[0] droppedJobsSLA 0
scalar FogNoLB.fog[10].server[0] droppedJobsTotal 257
scalar FogNoLB.fog[11].dispatcher localJobs 5906
scalar FogNoLB.fog[11].dispatcher remoteJobs 0
scalar FogNoLB.fog[11].dispatcher probeQueries 0
scalar FogNoLB.fog[11].dispatcher probeAnswers 0
scalar FogNoLB.fog[11].dispatcher droppedJobsSLA 0
scalar FogNoLB.fog[11].dispatcher jobs_class_1 5906
scalar FogNoLB.fog[11].dispatcher localJobs_class_1 5906
scalar FogNoLB.fog[11].server[0] rho 0.90103107690811
scalar FogNoLB.fog[11].server[0] congestionRatio 0
scalar FogNoLB.fog[11].server[0] totalJobs 5906
scalar FogNoLB.fog[11].server[0] droppedJobsQueue 5
scalar FogNoLB.fog[11].server[0] droppedJobsTimout 266
scalar FogNoLB.fog[11].server[0] droppedJobsSLA 0
scalar FogNoLB.fog[11].server[0] droppedJobsTotal 271
scalar FogNoLB.fog[12].dispatcher localJobs 5840
scalar FogNoLB.fog[12].dispatcher remoteJobs 0
scalar FogNoLB.fog[12].dispatcher probeQueries 0
scalar FogNoLB.fog[12].dispatcher probeAnswers 0
scalar FogNoLB.fog[12].dispatcher droppedJobsSLA 0
scalar FogNoLB.fog[12].dispatcher jobs_class_1 5840
scalar FogNoLB.fog[12].dispatcher localJobs_class_1 5840
scalar FogNoLB.fog[12].server[0] rho 0.88944840431213
scalar FogNoLB.fog[12].server[0] congestionRatio 0
scalar FogNoLB.fog[12].server[0] totalJobs 5840
scalar FogNoLB.fog[12].server[0] droppedJobsQueue 6
scalar FogNoLB.fog[12].server[0] droppedJobsTimout 251
scalar FogNoLB.fog[12].server[0] droppedJobsSLA 0
scalar FogNoLB.fog[12].server[0] droppedJobsTotal 257
scalar FogNoLB.fog[13].dispatcher localJobs 5738
scalar FogNoLB.fog[13].dispatcher remoteJobs 0
scalar FogNoLB.fog[13].dispatcher probeQueries 0
scalar FogNoLB.fog[13].dispatcher probeAnswers 0
scalar FogNoLB.fog[13].dispatcher droppedJobsSLA 0
scalar FogNoLB.fog[13].dispatcher jobs_class_1 5738
scalar FogNoLB.fog[13].dispatcher localJobs_class_1 5738
scalar FogNoLB.fog[13].server[0] rho 0.8786569237709
scalar FogNoLB.fog[13].server[0] congestionRatio 0
scalar FogNoLB.fog[13].server[0] totalJobs 5738
scalar FogNoLB.fog[13].server[0] droppedJobsQueue 7
scalar FogNoLB.fog[13].server[0] droppedJobsTimout 182
scalar FogNoLB.fog[13].server[0] droppedJobsSLA 0
scalar FogNoLB.fog[13].server[0] droppedJobsTotal 189
scalar FogNoLB.fog[14].dispatcher localJobs 5786
scalar FogNoLB.fog[14].dispatcher remoteJobs 0
scalar FogNoLB.fog[14].dispatcher probeQueries 0
scalar FogNoLB.fog[14].dispatcher probeAnswers 0
scalar FogNoLB.fog[14].dispatcher droppedJobsSLA 0
scalar FogNoLB.fog[14].dispatcher jobs_class_1 5786
scalar FogNoLB.fog[14].dispatcher localJobs_class_1 5786
scalar FogNoLB.fog[14].server[0] rho 0.88844072818756
scalar FogNoLB.fog[14].server[0] congestionRatio 0
scalar FogNoLB.fog[14].server[0] totalJobs 5786
scalar FogNoLB.fog[14].server[0] droppedJobsQueue 5
scalar FogNoLB.fog[14].server[0] droppedJobsTimout 136
scalar FogNoLB.fog[14].server[0] droppedJobsSLA 0
scalar FogNoLB.fog[14].server[0] droppedJobsTotal 141
scalar FogNoLB.fog[15].dispatcher localJobs 5836
scalar FogNoLB.fog[15].dispatcher remoteJobs 0
scalar FogNoLB.fog[15].dispatcher probeQueries 0
scalar FogNoLB.fog[15].dispatcher probeAnswers 0
scalar FogNoLB.fog[15].dispatcher droppedJobsSLA 0
scalar FogNoLB.fog[15].dispatcher jobs_class_1 5836
scalar FogNoLB.fog[15].dispatcher localJobs_class_1 5836
scalar FogNoLB.fog[15].server[0] rho 0.8920134305954
scalar FogNoLB.fog[15].server[0] congestionRatio 0
scalar FogNoLB.fog[15].server[0] totalJobs 5836
scalar FogNoLB.fog[15].server[0] droppedJobsQueue 3
scalar FogNoLB.fog[15].server[0] droppedJobsTimout 261
scalar FogNoLB.fog[15].server[0] droppedJobsSLA 0
scalar FogNoLB.fog[15].server[0] droppedJobsTotal 264
scalar FogNoLB.fog[16].dispatcher localJobs 5884
scalar FogNoLB.fog[16].dispatcher remoteJobs 0
scalar FogNoLB.fog[16].dispatcher probeQueries 0
scalar FogNoLB.fog[16].dispatcher probeAnswers 0
scalar FogNoLB.fog[16].dispatcher droppedJobsSLA 0
scalar FogNoLB.fog[16].dispatcher jobs_class_1 5884
scalar FogNoLB.fog[16].dispatcher localJobs_class_1 5884
scalar FogNoLB.fog[16].server[0] rho 0.88780862092972
scalar FogNoLB.fog[16].server[0] congestionRatio 0
scalar FogNoLB.fog[16].server[0] totalJobs 5884
scalar FogNoLB.fog[16].server[0] droppedJobsQueue 32
scalar FogNoLB.fog[16].server[0] droppedJobsTimout 369
scalar FogNoLB.fog[16].server[0] droppedJobsSLA 0
scalar FogNoLB.fog[16].server[0] droppedJobsTotal 401
scalar FogNoLB.fog[17].dispatcher localJobs 5848
scalar FogNoLB.fog[17].dispatcher remoteJobs 0
scalar FogNoLB.fog[17].dispatcher probeQueries 0
scalar FogNoLB.fog[17].dispatcher probeAnswers 0
scalar FogNoLB.fog[17].dispatcher droppedJobsSLA 0
scalar FogNoLB.fog[17].dispatcher jobs_class_1 5848
scalar FogNoLB.fog[17].dispatcher localJobs_class_1 5848
scalar FogNoLB.fog[17].server[0] rho 0.8926767706871
scalar FogNoLB.fog[17].server[0] congestionRatio 0
scalar FogNoLB.fog[17].server[0] totalJobs 5848
scalar FogNoLB.fog[17].server[0] droppedJobsQueue 3
scalar FogNoLB.fog[17].server[0] droppedJobsTimout 275
scalar FogNoLB.fog[17].server[0] droppedJobsSLA 0
scalar FogNoLB.fog[17].server[0] droppedJobsTotal 278
scalar FogNoLB.fog[18].dispatcher localJobs 5934
scalar FogNoLB.fog[18].dispatcher remoteJobs 0
scalar FogNoLB.fog[18].dispatcher probeQueries 0
scalar FogNoLB.fog[18].dispatcher probeAnswers 0
scalar FogNoLB.fog[18].dispatcher droppedJobsSLA 0
scalar FogNoLB.fog[18].dispatcher jobs_class_1 5934
scalar FogNoLB.fog[18].dispatcher localJobs_class_1 5934
scalar FogNoLB.fog[18].server[0] rho 0.90282928943634
scalar FogNoLB.fog[18].server[0] congestionRatio 0
scalar FogNoLB.fog[18].server[0] totalJobs 5934
scalar FogNoLB.fog[18].server[0] droppedJobsQueue 10
scalar FogNoLB.fog[18].server[0] droppedJobsTimout 298
scalar FogNoLB.fog[18].server[0] droppedJobsSLA 0
scalar FogNoLB.fog[18].server[0] droppedJobsTotal 308
scalar FogNoLB.fog[19].dispatcher localJobs 5875
scalar FogNoLB.fog[19].dispatcher remoteJobs 0
scalar FogNoLB.fog[19].dispatcher probeQueries 0
scalar FogNoLB.fog[19].dispatcher probeAnswers 0
scalar FogNoLB.fog[19].dispatcher droppedJobsSLA 0
scalar FogNoLB.fog[19].dispatcher jobs_class_1 5875
scalar FogNoLB.fog[19].dispatcher localJobs_class_1 5875
scalar FogNoLB.fog[19].server[0] rho 0.89368766546249
scalar FogNoLB.fog[19].server[0] congestionRatio 0
scalar FogNoLB.fog[19].server[0] totalJobs 5875
scalar FogNoLB.fog[19].server[0] droppedJobsQueue 12
scalar FogNoLB.fog[19].server[0] droppedJobsTimout 350
scalar FogNoLB.fog[19].server[0] droppedJobsSLA 0
scalar FogNoLB.fog[19].server[0] droppedJobsTotal 362
scalar FogNoLB.fog[20].dispatcher localJobs 5836
scalar FogNoLB.fog[20].dispatcher remoteJobs 0
scalar FogNoLB.fog[20].dispatcher probeQueries 0
scalar FogNoLB.fog[20].dispatcher probeAnswers 0
scalar FogNoLB.fog[20].dispatcher droppedJobsSLA 0
scalar FogNoLB.fog[20].dispatcher jobs_class_1 5836
scalar FogNoLB.fog[20].dispatcher localJobs_class_1 5836
scalar FogNoLB.fog[20].server[0] rho 0.88597506284714
scalar FogNoLB.fog[20].server[0] congestionRatio 0
scalar FogNoLB.fog[20].server[0] totalJobs 5836
scalar FogNoLB.fog[20].server[0] droppedJobsQueue 24
scalar FogNoLB.fog[20].server[0] droppedJobsTimout 293
scalar FogNoLB.fog[20].server[0] droppedJobsSLA 0
scalar FogNoLB.fog[20].server[0] droppedJobsTotal 317
scalar FogNoLB.fog[21].dispatcher localJobs 5720
scalar FogNoLB.fog[21].dispatcher remoteJobs 0
scalar FogNoLB.fog[21].dispatcher probeQueries 0
scalar FogNoLB.fog[21].dispatcher probeAnswers 0
scalar FogNoLB.fog[21].dispatcher droppedJobsSLA 0
scalar FogNoLB.fog[21].dispatcher jobs_class_1 5720
scalar FogNoLB.fog[21].dispatcher localJobs_class_1 5720
scalar FogNoLB.fog[21].server[0] rho 0.86967539787292
scalar FogNoLB.fog[21].server[0] congestionRatio 0
scalar FogNoLB.fog[21].server[0] totalJobs 5720
scalar FogNoLB.fog[21].server[0] droppedJobsQueue 9
scalar FogNoLB.fog[21].server[0] droppedJobsTimout 267
scalar FogNoLB.fog[21].server[0] droppedJobsSLA 0
scalar FogNoLB.fog[21].server[0] droppedJobsTotal 276
scalar FogNoLB.fog[22].dispatcher localJobs 5779
scalar FogNoLB.fog[22].dispatcher remoteJobs 0
scalar FogNoLB.fog[22].dispatcher probeQueries 0
scalar FogNoLB.fog[22].dispatcher probeAnswers 0
scalar FogNoLB.fog[22].dispatcher droppedJobsSLA 0
scalar FogNoLB.fog[22].dispatcher jobs_class_1 5779
scalar FogNoLB.fog[22].dispatcher localJobs_class_1 5779
scalar FogNoLB.fog[22].server[0] rho 0.8865807056427
scalar FogNoLB.fog[22].server[0] congestionRatio 0
scalar FogNoLB.fog[22].server[0] totalJobs 5779
scalar FogNoLB.fog[22].server[0] droppedJobsQueue 0
scalar FogNoLB.fog[22].server[0] droppedJobsTimout 144
scalar FogNoLB.fog[22].server[0] droppedJobsSLA 0
scalar FogNoLB.fog[22].server[0] droppedJobsTotal 144
scalar FogNoLB.fog[23].dispatcher localJobs 5820
scalar FogNoLB.fog[23].dispatcher remoteJobs 0
scalar FogNoLB.fog[23].dispatcher probeQueries 0
scalar FogNoLB.fog[23].dispatcher probeAnswers 0
scalar FogNoLB.fog[23].dispatcher droppedJobsSLA 0
scalar FogNoLB.fog[23].dispatcher jobs_class_1 5820
scalar FogNoLB.fog[23].dispatcher localJobs_class_1 5820
scalar FogNoLB.fog[23].server[0] rho 0.8817183971405
scalar FogNoLB.fog[23].server[0] congestionRatio 0
scalar FogNoLB.fog[23].server[0] totalJobs 5820
scalar FogNoLB.fog[23].server[0] droppedJobsQueue 15
scalar FogNoLB.fog[23].server[0] droppedJobsTimout 308
scalar FogNoLB.fog[23].server[0] droppedJobsSLA 0
scalar FogNoLB.fog[23].server[0] droppedJobsTotal 323
scalar FogNoLB.fog[24].dispatcher localJobs 5875
scalar FogNoLB.fog[24].dispatcher remoteJobs 0
scalar FogNoLB.fog[24].dispatcher probeQueries 0
scalar FogNoLB.fog[24].dispatcher probeAnswers 0
scalar FogNoLB.fog[24].dispatcher droppedJobsSLA 0
scalar FogNoLB.fog[24].dispatcher jobs_class_1 5875
scalar FogNoLB.fog[24].dispatcher localJobs_class_1 5875
scalar FogNoLB.fog[24].server[0] rho 0.89637553691864
scalar FogNoLB.fog[24].server[0] congestionRatio 0
scalar FogNoLB.fog[24].server[0] totalJobs 5875
scalar FogNoLB.fog[24].server[0] droppedJobsQueue 9
scalar FogNoLB.fog[24].server[0] droppedJobsTimout 269
scalar FogNoLB.fog[24].server[0] droppedJobsSLA 0
scalar FogNoLB.fog[24].server[0] droppedJobsTotal 278
scalar FogNoLB.fog[25].dispatcher localJobs 5840
scalar FogNoLB.fog[25].dispatcher remoteJobs 0
scalar FogNoLB.fog[25].dispatcher probeQueries 0
scalar FogNoLB.fog[25].dispatcher probeAnswers 0
scalar FogNoLB.fog[25].dispatcher droppedJobsSLA 0
scalar FogNoLB.fog[25].dispatcher jobs_class_1 5840
scalar FogNoLB.fog[25].dispatcher localJobs_class_1 5840
scalar FogNoLB.fog[25].server[0] rho 0.88662683963776
scalar FogNoLB.fog[25].server[0] congestionRatio 0
scalar FogNoLB.fog[25].server[0] totalJobs 5840
scalar FogNoLB.fog[25].server[0] droppedJobsQueue 14
scalar FogNoLB.fog[25].server[0] droppedJobsTimout 297
scalar FogNoLB.fog[25].server[0] droppedJobsSLA 0
scalar FogNoLB.fog[25].server[0] droppedJobsTotal 311
scalar FogNoLB.fog[26].dispatcher localJobs 5837
scalar FogNoLB.fog[26].dispatcher remoteJobs 0
scalar FogNoLB.fog[26].dispatcher probeQueries 0
scalar FogNoLB.fog[26].dispatcher probeAnswers 0
scalar FogNoLB.fog[26].dispatcher droppedJobsSLA 0
scalar FogNoLB.fog[26].dispatcher jobs_class_1 5837
scalar FogNoLB.fog[26].dispatcher localJobs_class_1 5837
scalar FogNoLB.fog[26].server[0] rho 0.88823366165161
scalar FogNoLB.fog[26].server[0] congestionRatio 0
scalar FogNoLB.fog[26].server[0] totalJobs 5837
scalar FogNoLB.fog[26].server[0] droppedJobsQueue 14
scalar FogNoLB.fog[26].server[0] droppedJobsTimout 272
scalar FogNoLB.fog[26].server[0] droppedJobsSLA 0
scalar FogNoLB.fog[26].server[0] droppedJobsTotal 286
scalar FogNoLB.fog[27].dispatcher localJobs 5758
scalar FogNoLB.fog[27].dispatcher remoteJobs 0
scalar FogNoLB.fog[27].dispatcher probeQueries 0
scalar FogNoLB.fog[27].dispatcher probeAnswers 0
scalar FogNoLB.fog[27].dispatcher droppedJobsSLA 0
scalar FogNoLB.fog[27].dispatcher jobs_class_1 5758
scalar FogNoLB.fog[27].dispatcher localJobs_class_1 5758
scalar FogNoLB.fog[27].server[0] rho 0.88208717107773
scalar FogNoLB.fog[27].server[0] congestionRatio 0
scalar FogNoLB.fog[27].server[0] totalJobs 5758
scalar FogNoLB.fog[27].server[0] droppedJobsQueue 8
scalar FogNoLB.fog[27].server[0] droppedJobsTimout 172
scalar FogNoLB.fog[27].server[0] droppedJobsSLA 0
scalar FogNoLB.fog[27].server[0] droppedJobsTotal 180
scalar FogNoLB.fog[28].dispatcher localJobs 5774
scalar FogNoLB.fog[28].dispatcher remoteJobs 0
scalar FogNoLB.fog[28].dispatcher probeQueries 0
scalar FogNoLB.fog[28].dispatcher probeAnswers 0
scalar FogNoLB.fog[28].dispatcher droppedJobsSLA 0
scalar FogNoLB.fog[28].dispatcher jobs_class_1 5774
scalar FogNoLB.fog[28].dispatcher localJobs_class_1 5774
scalar FogNoLB.fog[28].server[0] rho 0.8804903626442
scalar FogNoLB.fog[28].server[0] congestionRatio 0
scalar FogNoLB.fog[28].server[0] totalJobs 5774
scalar FogNoLB.fog[28].server[0] droppedJobsQueue 9
scalar FogNoLB.fog[28].server[0] droppedJobsTimout 247
scalar FogNoLB.fog[28].server[0] droppedJobsSLA 0
scalar FogNoLB.fog[28].server[0] droppedJobsTotal 256
scalar FogNoLB.fog[29].dispatcher localJobs 5870
scalar FogNoLB.fog[29].dispatcher remoteJobs 0
scalar FogNoLB.fog[29].dispatcher probeQueries 0
scalar FogNoLB.fog[29].dispatcher probeAnswers 0
scalar FogNoLB.fog[29].dispatcher droppedJobsSLA 0
scalar FogNoLB.fog[29].dispatcher jobs_class_1 5870
scalar FogNoLB.fog[29].dispatcher localJobs_class_1 5870
scalar FogNoLB.fog[29].server[0] rho 0.89645516872406
scalar FogNoLB.fog[29].server[0] congestionRatio 0
scalar FogNoLB.fog[29].server[0] totalJobs 5870
scalar FogNoLB.fog[29].server[0] droppedJobsQueue 5
scalar FogNoLB.fog[29].server[0] droppedJobsTimout 249
scalar FogNoLB.fog[29].server[0] droppedJobsSLA 0
scalar FogNoLB.fog[29].server[0] droppedJobsTotal 254
scalar FogNoLB.fog[30].dispatcher localJobs 5895
scalar FogNoLB.fog[30].dispatcher remoteJobs 0
scalar FogNoLB.fog[30].dispatcher probeQueries 0
scalar FogNoLB.fog[30].dispatcher probeAnswers 0
scalar FogNoLB.fog[30].dispatcher droppedJobsSLA 0
scalar FogNoLB.fog[30].dispatcher jobs_class_1 5895
scalar FogNoLB.fog[30].dispatcher localJobs_class_1 5895
scalar FogNoLB.fog[30].server[0] rho 0.8982110619545
scalar FogNoLB.fog[30].server[0] congestionRatio 0
scalar FogNoLB.fog[30].server[0] totalJobs 5895
scalar FogNoLB.fog[30].server[0] droppedJobsQueue 11
scalar FogNoLB.fog[30].server[0] droppedJobsTimout 264
scalar FogNoLB.fog[30].server[0] droppedJobsSLA 0
scalar FogNoLB.fog[30].server[0] droppedJobsTotal 275
scalar FogNoLB.fog[31].dispatcher localJobs 5806
scalar FogNoLB.fog[31].dispatcher remoteJobs 0
scalar FogNoLB.fog[31].dispatcher probeQueries 0
scalar FogNoLB.fog[31].dispatcher probeAnswers 0
scalar FogNoLB.fog[31].dispatcher droppedJobsSLA 0
scalar FogNoLB.fog[31].dispatcher jobs_class_1 5806
scalar FogNoLB.fog[31].dispatcher localJobs_class_1 5806
scalar FogNoLB.fog[31].server[0] rho 0.88629996776581
scalar FogNoLB.fog[31].server[0] congestionRatio 0
scalar FogNoLB.fog[31].server[0] totalJobs 5806
scalar FogNoLB.fog[31].server[0] droppedJobsQueue 1
scalar FogNoLB.fog[31].server[0] droppedJobsTimout 228
scalar FogNoLB.fog[31].server[0] droppedJobsSLA 0
scalar FogNoLB.fog[31].server[0] droppedJobsTotal 229
scalar FogNoLB.fog[32].dispatcher localJobs 5885
scalar FogNoLB.fog[32].dispatcher remoteJobs 0
scalar FogNoLB.fog[32].dispatcher probeQueries 0
scalar FogNoLB.fog[32].dispatcher probeAnswers 0
scalar FogNoLB.fog[32].dispatcher droppedJobsSLA 0
scalar FogNoLB.fog[32].dispatcher jobs_class_1 5885
scalar FogNoLB.fog[32].dispatcher localJobs_class_1 5885
scalar FogNoLB.fog[32].server[0] rho 0.89441615343094
scalar FogNoLB.fog[32].server[0] congestionRatio 0
scalar FogNoLB.fog[32].server[0] totalJobs 5885
scalar FogNoLB.fog[32].server[0] droppedJobsQueue 13
scalar FogNoLB.fog[32].server[0] droppedJobsTimout 334
scalar FogNoLB.fog[32].server[0] droppedJobsSLA 0
scalar FogNoLB.fog[32].server[0] droppedJobsTotal 347
scalar FogNoLB.fog[33].dispatcher localJobs 5727
scalar FogNoLB.fog[33].dispatcher remoteJobs 0
scalar FogNoLB.fog[33].dispatcher probeQueries 0
scalar FogNoLB.fog[33].dispatcher probeAnswers 0
scalar FogNoLB.fog[33].dispatcher droppedJobsSLA 0
scalar FogNoLB.fog[33].dispatcher jobs_class_1 5727
scalar FogNoLB.fog[33].dispatcher localJobs_class_1 5727
scalar FogNoLB.fog[33].server[0] rho 0.87908172607422
scalar FogNoLB.fog[33].server[0] congestionRatio 0
scalar FogNoLB.fog[33].server[0] totalJobs 5727
scalar FogNoLB.fog[33].server[0] droppedJobsQueue 5
scalar FogNoLB.fog[33].server[0] droppedJobsTimout 133
scalar FogNoLB.fog[33].server[0] droppedJobsSLA 0
scalar FogNoLB.fog[33].server[0] droppedJobsTotal 138
scalar FogNoLB.fog[34].dispatcher localJobs 5864
scalar FogNoLB.fog[34].dispatcher remoteJobs 0
scalar FogNoLB.fog[34].dispatcher probeQueries 0
scalar FogNoLB.fog[34].dispatcher probeAnswers 0
scalar FogNoLB.fog[34].dispatcher droppedJobsSLA 0
scalar FogNoLB.fog[34].dispatcher jobs_class_1 5864
scalar FogNoLB.fog[34].dispatcher localJobs_class_1 5864
scalar FogNoLB.fog[34].server[0] rho 0.89433443546295
scalar FogNoLB.fog[34].server[0] congestionRatio 0
scalar FogNoLB.fog[34].server[0] totalJobs 5864
scalar FogNoLB.fog[34].server[0] droppedJobsQueue 9
scalar FogNoLB.fog[34].server[0] droppedJobsTimout 252
scalar FogNoLB.fog[34].server[0] droppedJobsSLA 0
scalar FogNoLB.fog[34].server[0] droppedJobsTotal 261
scalar FogNoLB.fog[35].dispatcher localJobs 5686
scalar FogNoLB.fog[35].dispatcher remoteJobs 0
scalar FogNoLB.fog[35].dispatcher probeQueries 0
scalar FogNoLB.fog[35].dispatcher probeAnswers 0
scalar FogNoLB.fog[35].dispatcher droppedJobsSLA 0
scalar FogNoLB.fog[35].dispatcher jobs_class_1 5686
scalar FogNoLB.fog[35].dispatcher localJobs_class_1 5686
scalar FogNoLB.fog[35].server[0] rho 0.8706733584404
scalar FogNoLB.fog[35].server[0] congestionRatio 0
scalar FogNoLB.fog[35].server[0] totalJobs 5686
scalar FogNoLB.fog[35].server[0] droppedJobsQueue 1
scalar FogNoLB.fog[35].server[0] droppedJobsTimout 178
scalar FogNoLB.fog[35].server[0] droppedJobsSLA 0
scalar FogNoLB.fog[35].server[0] droppedJobsTotal 179
scalar FogNoLB.fog[36].dispatcher localJobs 5867
scalar FogNoLB.fog[36].dispatcher remoteJobs 0
scalar FogNoLB.fog[36].dispatcher probeQueries 0
scalar FogNoLB.fog[36].dispatcher probeAnswers 0
scalar FogNoLB.fog[36].dispatcher droppedJobsSLA 0
scalar FogNoLB.fog[36].dispatcher jobs_class_1 5867
scalar FogNoLB.fog[36].dispatcher localJobs_class_1 5867
scalar FogNoLB.fog[36].server[0] rho 0.89275330305099
scalar FogNoLB.fog[36].server[0] congestionRatio 0
scalar FogNoLB.fog[36].server[0] totalJobs 5867
scalar FogNoLB.fog[36].server[0] droppedJobsQueue 9
scalar FogNoLB.fog[36].server[0] droppedJobsTimout 285
scalar FogNoLB.fog[36].server[0] droppedJobsSLA 0
scalar FogNoLB.fog[36].server[0] droppedJobsTotal 294
scalar FogNoLB.fog[37].dispatcher localJobs 5854
scalar FogNoLB.fog[37].dispatcher remoteJobs 0
scalar FogNoLB.fog[37].dispatcher probeQueries 0
scalar FogNoLB.fog[37].dispatcher probeAnswers 0
scalar FogNoLB.fog[37].dispatcher droppedJobsSLA 0
scalar FogNoLB.fog[37].dispatcher jobs_class_1 5854
scalar FogNoLB.fog[37].dispatcher localJobs_class_1 5854
scalar FogNoLB.fog[37].server[0] rho 0.89633864164352
scalar FogNoLB.fog[37].server[0] congestionRatio 0
scalar FogNoLB.fog[37].server[0] totalJobs 5854
scalar FogNoLB.fog[37].server[0] droppedJobsQueue 8
scalar FogNoLB.fog[37].server[0] droppedJobsTimout 199
scalar FogNoLB.fog[37].server[0] droppedJobsSLA 0
scalar FogNoLB.fog[37].server[0] droppedJobsTotal 207
scalar FogNoLB.fog[38].dispatcher localJobs 5818
scalar FogNoLB.fog[38].dispatcher remoteJobs 0
scalar FogNoLB.fog[38].dispatcher probeQueries 0
scalar FogNoLB.fog[38].dispatcher probeAnswers 0
scalar FogNoLB.fog[38].dispatcher droppedJobsSLA 0
scalar FogNoLB.fog[38].dispatcher jobs_class_1 5818
scalar FogNoLB.fog[38].dispatcher localJobs_class_1 5818
scalar FogNoLB.fog[38].server[0] rho 0.88459151983261
scalar FogNoLB.fog[38].server[0] congestionRatio 0
scalar FogNoLB.fog[38].server[0] totalJobs 5818
scalar FogNoLB.fog[38].server[0] droppedJobsQueue 10
scalar FogNoLB.fog[38].server[0] droppedJobsTimout 292
scalar FogNoLB.fog[38].server[0] droppedJobsSLA 0
scalar FogNoLB.fog[38].server[0] droppedJobsTotal 302
scalar FogNoLB.fog[39].dispatcher localJobs 5663
scalar FogNoLB.fog[39].dispatcher remoteJobs 0
scalar FogNoLB.fog[39].dispatcher probeQueries 0
scalar FogNoLB.fog[39].dispatcher probeAnswers 0
scalar FogNoLB.fog[39].dispatcher droppedJobsSLA 0
scalar FogNoLB.fog[39].dispatcher jobs_class_1 5663
scalar FogNoLB.fog[39].dispatcher localJobs_class_1 5663
scalar FogNoLB.fog[39].server[0] rho 0.8681852221489
scalar FogNoLB.fog[39].server[0] congestionRatio 0
scalar FogNoLB.fog[39].server[0] totalJobs 5663
scalar FogNoLB.fog[39].server[0] droppedJobsQueue 7
scalar FogNoLB.fog[39].server[0] droppedJobsTimout 131
scalar FogNoLB.fog[39].server[0] droppedJobsSLA 0
scalar FogNoLB.fog[39].server[0] droppedJobsTotal 138
scalar FogNoLB.fog[40].dispatcher localJobs 5793
scalar FogNoLB.fog[40].dispatcher remoteJobs 0
scalar FogNoLB.fog[40].dispatcher probeQueries 0
scalar FogNoLB.fog[40].dispatcher probeAnswers 0
scalar FogNoLB.fog[40].dispatcher droppedJobsSLA 0
scalar FogNoLB.fog[40].dispatcher jobs_class_1 5793
scalar FogNoLB.fog[40].dispatcher localJobs_class_1 5793
scalar FogNoLB.fog[40].server[0] rho 0.88485330343246
scalar FogNoLB.fog[40].server[0] congestionRatio 0
scalar FogNoLB.fog[40].server[0] totalJobs 5793
scalar FogNoLB.fog[40].server[0] droppedJobsQueue 6
scalar FogNoLB.fog[40].server[0] droppedJobsTimout 210
scalar FogNoLB.fog[40].server[0] droppedJobsSLA 0
scalar FogNoLB.fog[40].server[0] droppedJobsTotal 216
scalar FogNoLB.fog[41].dispatcher localJobs 5907
scalar FogNoLB.fog[41].dispatcher remoteJobs 0
scalar FogNoLB.fog[41].dispatcher probeQueries 0
scalar FogNoLB.fog[41].dispatcher probeAnswers 0
scalar FogNoLB.fog[41].dispatcher droppedJobsSLA 0
scalar FogNoLB.fog[41].dispatcher jobs_class_1 5907
scalar FogNoLB.fog[41].dispatcher localJobs_class_1 5907
scalar FogNoLB.fog[41].server[0] rho 0.90030634403229
scalar FogNoLB.fog[41].server[0] congestionRatio 0
scalar FogNoLB.fog[41].server[0] totalJobs 5907
scalar FogNoLB.fog[41].server[0] droppedJobsQueue 7
scalar FogNoLB.fog[41].server[0] droppedJobsTimout 327
scalar FogNoLB.fog[41].server[0] droppedJobsSLA 0
scalar FogNoLB.fog[41].server[0] droppedJobsTotal 334
scalar FogNoLB.fog[42].dispatcher localJobs 5764
scalar FogNoLB.fog[42].dispatcher remoteJobs 0
scalar FogNoLB.fog[42].dispatcher probeQueries 0
scalar FogNoLB.fog[42].dispatcher probeAnswers 0
scalar FogNoLB.fog[42].dispatcher droppedJobsSLA 0
scalar FogNoLB.fog[42].dispatcher jobs_class_1 5764
scalar FogNoLB.fog[42].dispatcher localJobs_class_1 5764
scalar FogNoLB.fog[42].server[0] rho 0.88013595342636
scalar FogNoLB.fog[42].server[0] congestionRatio 0
scalar FogNoLB.fog[42].server[0] totalJobs 5764
scalar FogNoLB.fog[42].server[0] droppedJobsQueue 6
scalar FogNoLB.fog[42].server[0] droppedJobsTimout 195
scalar FogNoLB.fog[42].server[0] droppedJobsSLA 0
scalar FogNoLB.fog[42].server[0] droppedJobsTotal 201
scalar FogNoLB.fog[43].dispatcher localJobs 5773
scalar FogNoLB.fog[43].dispatcher remoteJobs 0
scalar FogNoLB.fog[43].dispatcher probeQueries 0
scalar FogNoLB.fog[43].dispatcher probeAnswers 0
scalar FogNoLB.fog[43].dispatcher droppedJobsSLA 0
scalar FogNoLB.fog[43].dispatcher jobs_class_1 5773
scalar FogNoLB.fog[43].dispatcher localJobs_class_1 5773
scalar FogNoLB.fog[43].server[0] rho 0.88294529914856
scalar FogNoLB.fog[43].server[0] congestionRatio 0
scalar FogNoLB.fog[43].server[0] totalJobs 5773
scalar FogNoLB.fog[43].server[0] droppedJobsQueue 2
scalar FogNoLB.fog[43].server[0] droppedJobsTimout 212
scalar FogNoLB.fog[43].server[0] droppedJobsSLA 0
scalar FogNoLB.fog[43].server[0] droppedJobsTotal 214
scalar FogNoLB.fog[44].dispatcher localJobs 5671
scalar FogNoLB.fog[44].dispatcher remoteJobs 0
scalar FogNoLB.fog[44].dispatcher probeQueries 0
scalar FogNoLB.fog[44].dispatcher probeAnswers 0
scalar FogNoLB.fog[44].dispatcher droppedJobsSLA 0
scalar FogNoLB.fog[44].dispatcher jobs_class_1 5671
scalar FogNoLB.fog[44].dispatcher localJobs_class_1 5671
scalar FogNoLB.fog[44].server[0] rho 0.86479407548904
scalar FogNoLB.fog[44].server[0] congestionRatio 0
scalar FogNoLB.fog[44].server[0] totalJobs 5671
scalar FogNoLB.fog[44].server[0] droppedJobsQueue 5
scalar FogNoLB.fog[44].server[0] droppedJobsTimout 186
scalar FogNoLB.fog[44].server[0] droppedJobsSLA 0
scalar FogNoLB.fog[44].server[0] droppedJobsTotal 191
scalar FogNoLB.fog[45].dispatcher localJobs 5859
scalar FogNoLB.fog[45].dispatcher remoteJobs 0
scalar FogNoLB.fog[45].dispatcher probeQueries 0
scalar FogNoLB.fog[45].dispatcher probeAnswers 0
scalar FogNoLB.fog[45].dispatcher droppedJobsSLA 0
scalar FogNoLB.fog[45].dispatcher jobs_class_1 5859
scalar FogNoLB.fog[45].dispatcher localJobs_class_1 5859
scalar FogNoLB.fog[45].server[0] rho 0.89602637290955
scalar FogNoLB.fog[45].server[0] congestionRatio 0
scalar FogNoLB.fog[45].server[0] totalJobs 5859
scalar FogNoLB.fog[45].server[0] droppedJobsQueue 8
scalar FogNoLB.fog[45].server[0] droppedJobsTimout 212
scalar FogNoLB.fog[45].server[0] droppedJobsSLA 0
scalar FogNoLB.fog[45].server[0] droppedJobsTotal 220
scalar FogNoLB.fog[46].dispatcher localJobs 5726
scalar FogNoLB.fog[46].dispatcher remoteJobs 0
scalar FogNoLB.fog[46].dispatcher probeQueries 0
scalar FogNoLB.fog[46].dispatcher probeAnswers 0
scalar FogNoLB.fog[46].dispatcher droppedJobsSLA 0
scalar FogNoLB.fog[46].dispatcher jobs_class_1 5726
scalar FogNoLB.fog[46].dispatcher localJobs_class_1 5726
scalar FogNoLB.fog[46].server[0] rho 0.8738659620285
scalar FogNoLB.fog[46].server[0] congestionRatio 0
scalar FogNoLB.fog[46].server[0] totalJobs 5726
scalar FogNoLB.fog[46].server[0] droppedJobsQueue 8
scalar FogNoLB.fog[46].server[0] droppedJobsTimout 237
scalar FogNoLB.fog[46].server[0] droppedJobsSLA 0
scalar FogNoLB.fog[46].server[0] droppedJobsTotal 245
scalar FogNoLB.fog[47].dispatcher localJobs 5698
scalar FogNoLB.fog[47].dispatcher remoteJobs 0
scalar FogNoLB.fog[47].dispatcher probeQueries 0
scalar FogNoLB.fog[47].dispatcher probeAnswers 0
scalar FogNoLB.fog[47].dispatcher droppedJobsSLA 0
scalar FogNoLB.fog[47].dispatcher jobs_class_1 5698
scalar FogNoLB.fog[47].dispatcher localJobs_class_1 5698
scalar FogNoLB.fog[47].server[0] rho 0.86947989463806
scalar FogNoLB.fog[47].server[0] congestionRatio 0
scalar FogNoLB.fog[47].server[0] totalJobs 5698
scalar FogNoLB.fog[47].server[0] droppedJobsQueue 12
scalar FogNoLB.fog[47].server[0] droppedJobsTimout 208
scalar FogNoLB.fog[47].server[0] droppedJobsSLA 0
scalar FogNoLB.fog[47].server[0] droppedJobsTotal 220
scalar FogNoLB.fog[48].dispatcher localJobs 5838
scalar FogNoLB.fog[48].dispatcher remoteJobs 0
scalar FogNoLB.fog[48].dispatcher probeQueries 0
scalar FogNoLB.fog[48].dispatcher probeAnswers 0
scalar FogNoLB.fog[48].dispatcher droppedJobsSLA 0
scalar FogNoLB.fog[48].dispatcher jobs_class_1 5838
scalar FogNoLB.fog[48].dispatcher localJobs_class_1 5838
scalar FogNoLB.fog[48].server[0] rho 0.89004576206207
scalar FogNoLB.fog[48].server[0] congestionRatio 0
scalar FogNoLB.fog[48].server[0] totalJobs 5838
scalar FogNoLB.fog[48].server[0] droppedJobsQueue 20
scalar FogNoLB.fog[48].server[0] droppedJobsTimout 220
scalar FogNoLB.fog[48].server[0] droppedJobsSLA 0
scalar FogNoLB.fog[48].server[0] droppedJobsTotal 240
scalar FogNoLB.fog[49].dispatcher localJobs 5784
scalar FogNoLB.fog[49].dispatcher remoteJobs 0
scalar FogNoLB.fog[49].dispatcher probeQueries 0
scalar FogNoLB.fog[49].dispatcher probeAnswers 0
scalar FogNoLB.fog[49].dispatcher droppedJobsSLA 0
scalar FogNoLB.fog[49].dispatcher jobs_class_1 5784
scalar FogNoLB.fog[49].dispatcher localJobs_class_1 5784
scalar FogNoLB.fog[49].server[0] rho 0.88019347190857
scalar FogNoLB.fog[49].server[0] congestionRatio 0
scalar FogNoLB.fog[49].server[0] totalJobs 5784
scalar FogNoLB.fog[49].server[0] droppedJobsQueue 15
scalar FogNoLB.fog[49].server[0] droppedJobsTimout 292
scalar FogNoLB.fog[49].server[0] droppedJobsSLA 0
scalar FogNoLB.fog[49].server[0] droppedJobsTotal 307
scalar FogNoLB.fog[50].dispatcher localJobs 5795
scalar FogNoLB.fog[50].dispatcher remoteJobs 0
scalar FogNoLB.fog[50].dispatcher probeQueries 0
scalar FogNoLB.fog[50].dispatcher probeAnswers 0
scalar FogNoLB.fog[50].dispatcher droppedJobsSLA 0
scalar FogNoLB.fog[50].dispatcher jobs_class_1 5795
scalar FogNoLB.fog[50].dispatcher localJobs_class_1 5795
scalar FogNoLB.fog[50].server[0] rho 0.88375550508499
scalar FogNoLB.fog[50].server[0] congestionRatio 0
scalar FogNoLB.fog[50].server[0] totalJobs 5795
scalar FogNoLB.fog[50].server[0] droppedJobsQueue 10
scalar FogNoLB.fog[50].server[0] droppedJobsTimout 212
scalar FogNoLB.fog[50].server[0] droppedJobsSLA 0
scalar FogNoLB.fog[50].server[0] droppedJobsTotal 222
scalar FogNoLB.fog[51].dispatcher localJobs 5917
scalar FogNoLB.fog[51].dispatcher remoteJobs 0
scalar FogNoLB.fog[51].dispatcher probeQueries 0
scalar FogNoLB.fog[51].dispatcher probeAnswers 0
scalar FogNoLB.fog[51].dispatcher droppedJobsSLA 0
scalar FogNoLB.fog[51].dispatcher jobs_class_1 5917
scalar FogNoLB.fog[51].dispatcher localJobs_class_1 5917
scalar FogNoLB.fog[51].server[0] rho 0.90057867765427
scalar FogNoLB.fog[51].server[0] congestionRatio 0
scalar FogNoLB.fog[51].server[0] totalJobs 5917
scalar FogNoLB.fog[51].server[0] droppedJobsQueue 8
scalar FogNoLB.fog[51].server[0] droppedJobsTimout 305
scalar FogNoLB.fog[51].server[0] droppedJobsSLA 0
scalar FogNoLB.fog[51].server[0] droppedJobsTotal 313
scalar FogNoLB.fog[52].dispatcher localJobs 5897
scalar FogNoLB.fog[52].dispatcher remoteJobs 0
scalar FogNoLB.fog[52].dispatcher probeQueries 0
scalar FogNoLB.fog[52].dispatcher probeAnswers 0
scalar FogNoLB.fog[52].dispatcher droppedJobsSLA 0
scalar FogNoLB.fog[52].dispatcher jobs_class_1 5897
scalar FogNoLB.fog[52].dispatcher localJobs_class_1 5897
scalar FogNoLB.fog[52].server[0] rho 0.89235979318619
scalar FogNoLB.fog[52].server[0] congestionRatio 0
scalar FogNoLB.fog[52].server[0] totalJobs 5897
scalar FogNoLB.fog[52].server[0] droppedJobsQueue 17
scalar FogNoLB.fog[52].server[0] droppedJobsTimout 353
scalar FogNoLB.fog[52].server[0] droppedJobsSLA 0
scalar FogNoLB.fog[52].server[0] droppedJobsTotal 370
scalar FogNoLB.fog[53].dispatcher localJobs 5784
scalar FogNoLB.fog[53].dispatcher remoteJobs 0
scalar FogNoLB.fog[53].dispatcher probeQueries 0
scalar FogNoLB.fog[53].dispatcher probeAnswers 0
scalar FogNoLB.fog[53].dispatcher droppedJobsSLA 0
scalar FogNoLB.fog[53].dispatcher jobs_class_1 5784
scalar FogNoLB.fog[53].dispatcher localJobs_class_1 5784
scalar FogNoLB.fog[53].server[0] rho 0.88250058889389
scalar FogNoLB.fog[53].server[0] congestionRatio 0
scalar FogNoLB.fog[53].server[0] totalJobs 5784
scalar FogNoLB.fog[53].server[0] droppedJobsQueue 13
scalar FogNoLB.fog[53].server[0] droppedJobsTimout 221
scalar FogNoLB.fog[53].server[0] droppedJobsSLA 0
scalar FogNoLB.fog[53].server[0] droppedJobsTotal 234
scalar FogNoLB.fog[54].dispatcher localJobs 5754
scalar FogNoLB.fog[54].dispatcher remoteJobs 0
scalar FogNoLB.fog[54].dispatcher probeQueries 0
scalar FogNoLB.fog[54].dispatcher probeAnswers 0
scalar FogNoLB.fog[54].dispatcher droppedJobsSLA 0
scalar FogNoLB.fog[54].dispatcher jobs_class_1 5754
scalar FogNoLB.fog[54].dispatcher localJobs_class_1 5754
scalar FogNoLB.fog[54].server[0] rho 0.87800127267838
scalar FogNoLB.fog[54].server[0] congestionRatio 0
scalar FogNoLB.fog[54].server[0] totalJobs 5754
scalar FogNoLB.fog[54].server[0] droppedJobsQueue 4
scalar FogNoLB.fog[54].server[0] droppedJobsTimout 236
scalar FogNoLB.fog[54].server[0] droppedJobsSLA 0
scalar FogNoLB.fog[54].server[0] droppedJobsTotal 240
scalar FogNoLB.fog[55].dispatcher localJobs 5855
scalar FogNoLB.fog[55].dispatcher remoteJobs 0
scalar FogNoLB.fog[55].dispatcher probeQueries 0
scalar FogNoLB.fog[55].dispatcher probeAnswers 0
scalar FogNoLB.fog[55].dispatcher droppedJobsSLA 0
scalar FogNoLB.fog[55].dispatcher jobs_class_1 5855
scalar FogNoLB.fog[55].dispatcher localJobs_class_1 5855
scalar FogNoLB.fog[55].server[0] rho 0.89485228061676
scalar FogNoLB.fog[55].server[0] congestionRatio 0
scalar FogNoLB.fog[55].server[0] totalJobs 5855
scalar FogNoLB.fog[55].server[0] droppedJobsQueue 2
scalar FogNoLB.fog[55].server[0] droppedJobsTimout 203
scalar FogNoLB.fog[55].server[0] droppedJobsSLA 0
scalar FogNoLB.fog[55].server[0] droppedJobsTotal 205
scalar FogNoLB.fog[56].dispatcher localJobs 5768
scalar FogNoLB.fog[56].dispatcher remoteJobs 0
scalar FogNoLB.fog[56].dispatcher probeQueries 0
scalar FogNoLB.fog[56].dispatcher probeAnswers 0
scalar FogNoLB.fog[56].dispatcher droppedJobsSLA 0
scalar FogNoLB.fog[56].dispatcher jobs_class_1 5768
scalar FogNoLB.fog[56].dispatcher localJobs_class_1 5768
scalar FogNoLB.fog[56].server[0] rho 0.88307994604111
scalar FogNoLB.fog[56].server[0] congestionRatio 0
scalar FogNoLB.fog[56].server[0] totalJobs 5768
scalar FogNoLB.fog[56].server[0] droppedJobsQueue 9
scalar FogNoLB.fog[56].server[0] droppedJobsTimout 187
scalar FogNoLB.fog[56].server[0] droppedJobsSLA 0
scalar FogNoLB.fog[56].server[0] droppedJobsTotal 196
scalar FogNoLB.fog[57].dispatcher localJobs 5759
scalar FogNoLB.fog[57].dispatcher remoteJobs 0
scalar FogNoLB.fog[57].dispatcher probeQueries 0
scalar FogNoLB.fog[57].dispatcher probeAnswers 0
scalar FogNoLB.fog[57].dispatcher droppedJobsSLA 0
scalar FogNoLB.fog[57].dispatcher jobs_class_1 5759
scalar FogNoLB.fog[57].dispatcher localJobs_class_1 5759
scalar FogNoLB.fog[57].server[0] rho 0.8839145898819
scalar FogNoLB.fog[57].server[0] congestionRatio 0
scalar FogNoLB.fog[57].server[0] totalJobs 5759
scalar FogNoLB.fog[57].server[0] droppedJobsQueue 0
scalar FogNoLB.fog[57].server[0] droppedJobsTimout 149
scalar FogNoLB.fog[57].server[0] droppedJobsSLA 0
scalar FogNoLB.fog[57].server[0] droppedJobsTotal 149
scalar FogNoLB.fog[58].dispatcher localJobs 5648
scalar FogNoLB.fog[58].dispatcher remoteJobs 0
scalar FogNoLB.fog[58].dispatcher probeQueries 0
scalar FogNoLB.fog[58].dispatcher probeAnswers 0
scalar FogNoLB.fog[58].dispatcher droppedJobsSLA 0
scalar FogNoLB.fog[58].dispatcher jobs_class_1 5648
scalar FogNoLB.fog[58].dispatcher localJobs_class_1 5648
scalar FogNoLB.fog[58].server[0] rho 0.86563646793365
scalar FogNoLB.fog[58].server[0] congestionRatio 0
scalar FogNoLB.fog[58].server[0] totalJobs 5648
scalar FogNoLB.fog[58].server[0] droppedJobsQueue 2
scalar FogNoLB.fog[58].server[0] droppedJobsTimout 177
scalar FogNoLB.fog[58].server[0] droppedJobsSLA 0
scalar FogNoLB.fog[58].server[0] droppedJobsTotal 179
scalar FogNoLB.fog[59].dispatcher localJobs 5801
scalar FogNoLB.fog[59].dispatcher remoteJobs 0
scalar FogNoLB.fog[59].dispatcher probeQueries 0
scalar FogNoLB.fog[59].dispatcher probeAnswers 0
scalar FogNoLB.fog[59].dispatcher droppedJobsSLA 0
scalar FogNoLB.fog[59].dispatcher jobs_class_1 5801
scalar FogNoLB.fog[59].dispatcher localJobs_class_1 5801
scalar FogNoLB.fog[59].server[0] rho 0.8887414932251
scalar FogNoLB.fog[59].server[0] congestionRatio 0
scalar FogNoLB.fog[59].server[0] totalJobs 5801
scalar FogNoLB.fog[59].server[0] droppedJobsQueue 4
scalar FogNoLB.fog[59].server[0] droppedJobsTimout 184
scalar FogNoLB.fog[59].server[0] droppedJobsSLA 0
scalar FogNoLB.fog[59].server[0] droppedJobsTotal 188
scalar FogNoLB.fog[60].dispatcher localJobs 5699
scalar FogNoLB.fog[60].dispatcher remoteJobs 0
scalar FogNoLB.fog[60].dispatcher probeQueries 0
scalar FogNoLB.fog[60].dispatcher probeAnswers 0
scalar FogNoLB.fog[60].dispatcher droppedJobsSLA 0
scalar FogNoLB.fog[60].dispatcher jobs_class_1 5699
scalar FogNoLB.fog[60].dispatcher localJobs_class_1 5699
scalar FogNoLB.fog[60].server[0] rho 0.87263649702072
scalar FogNoLB.fog[60].server[0] congestionRatio 0
scalar FogNoLB.fog[60].server[0] totalJobs 5699
scalar FogNoLB.fog[60].server[0] droppedJobsQueue 8
scalar FogNoLB.fog[60].server[0] droppedJobsTimout 146
scalar FogNoLB.fog[60].server[0] droppedJobsSLA 0
scalar FogNoLB.fog[60].server[0] droppedJobsTotal 154
scalar FogNoLB.fog[61].dispatcher localJobs 5727
scalar FogNoLB.fog[61].dispatcher remoteJobs 0
scalar FogNoLB.fog[61].dispatcher probeQueries 0
scalar FogNoLB.fog[61].dispatcher probeAnswers 0
scalar FogNoLB.fog[61].dispatcher droppedJobsSLA 0
scalar FogNoLB.fog[61].dispatcher jobs_class_1 5727
scalar FogNoLB.fog[61].dispatcher localJobs_class_1 5727
scalar FogNoLB.fog[61].server[0] rho 0.87421613931656
scalar FogNoLB.fog[61].server[0] congestionRatio 0
scalar FogNoLB.fog[61].server[0] totalJobs 5727
scalar FogNoLB.fog[61].server[0] droppedJobsQueue 11
scalar FogNoLB.fog[61].server[0] droppedJobsTimout 197
scalar FogNoLB.fog[61].server[0] droppedJobsSLA 0
scalar FogNoLB.fog[61].server[0] droppedJobsTotal 208
scalar FogNoLB.fog[62].dispatcher localJobs 5773
scalar FogNoLB.fog[62].dispatcher remoteJobs 0
scalar FogNoLB.fog[62].dispatcher probeQueries 0
scalar FogNoLB.fog[62].dispatcher probeAnswers 0
scalar FogNoLB.fog[62].dispatcher droppedJobsSLA 0
scalar FogNoLB.fog[62].dispatcher jobs_class_1 5773
scalar FogNoLB.fog[62].dispatcher localJobs_class_1 5773
scalar FogNoLB.fog[62].server[0] rho 0.88401609659195
scalar FogNoLB.fog[62].server[0] congestionRatio 0
scalar FogNoLB.fog[62].server[0] totalJobs 5773
scalar FogNoLB.fog[62].server[0] droppedJobsQueue 8
scalar FogNoLB.fog[62].server[0] droppedJobsTimout 158
scalar FogNoLB.fog[62].server[0] droppedJobsSLA 0
scalar FogNoLB.fog[62].server[0] droppedJobsTotal 166
scalar FogNoLB.fog[63].dispatcher localJobs 5837
scalar FogNoLB.fog[63].dispatcher remoteJobs 0
scalar FogNoLB.fog[63].dispatcher probeQueries 0
scalar FogNoLB.fog[63].dispatcher probeAnswers 0
scalar FogNoLB.fog[63].dispatcher droppedJobsSLA 0
scalar FogNoLB.fog[63].dispatcher jobs_class_1 5837
scalar FogNoLB.fog[63].dispatcher localJobs_class_1 5837
scalar FogNoLB.fog[63].server[0] rho 0.89161205291748
scalar FogNoLB.fog[63].server[0] congestionRatio 0
scalar FogNoLB.fog[63].server[0] totalJobs 5837
scalar FogNoLB.fog[63].server[0] droppedJobsQueue 3
scalar FogNoLB.fog[63].server[0] droppedJobsTimout 236
scalar FogNoLB.fog[63].server[0] droppedJobsSLA 0
scalar FogNoLB.fog[63].server[0] droppedJobsTotal 239
scalar FogNoLB.fog[64].dispatcher localJobs 5743
scalar FogNoLB.fog[64].dispatcher remoteJobs 0
scalar FogNoLB.fog[64].dispatcher probeQueries 0
scalar FogNoLB.fog[64].dispatcher probeAnswers 0
scalar FogNoLB.fog[64].dispatcher droppedJobsSLA 0
scalar FogNoLB.fog[64].dispatcher jobs_class_1 5743
scalar FogNoLB.fog[64].dispatcher localJobs_class_1 5743
scalar FogNoLB.fog[64].server[0] rho 0.87779504060745
scalar FogNoLB.fog[64].server[0] congestionRatio 0
scalar FogNoLB.fog[64].server[0] totalJobs 5743
scalar FogNoLB.fog[64].server[0] droppedJobsQueue 18
scalar FogNoLB.fog[64].server[0] droppedJobsTimout 150
scalar FogNoLB.fog[64].server[0] droppedJobsSLA 0
scalar FogNoLB.fog[64].server[0] droppedJobsTotal 168
scalar FogNoLB.fog[65].dispatcher localJobs 5887
scalar FogNoLB.fog[65].dispatcher remoteJobs 0
scalar FogNoLB.fog[65].dispatcher probeQueries 0
scalar FogNoLB.fog[65].dispatcher probeAnswers 0
scalar FogNoLB.fog[65].dispatcher droppedJobsSLA 0
scalar FogNoLB.fog[65].dispatcher jobs_class_1 5887
scalar FogNoLB.fog[65].dispatcher localJobs_class_1 5887
scalar FogNoLB.fog[65].server[0] rho 0.89565145969391
scalar FogNoLB.fog[65].server[0] congestionRatio 0
scalar FogNoLB.fog[65].server[0] totalJobs 5887
scalar FogNoLB.fog[65].server[0] droppedJobsQueue 14
scalar FogNoLB.fog[65].server[0] droppedJobsTimout 303
scalar FogNoLB.fog[65].server[0] droppedJobsSLA 0
scalar FogNoLB.fog[65].server[0] droppedJobsTotal 317
scalar FogNoLB.fog[66].dispatcher localJobs 5870
scalar FogNoLB.fog[66].dispatcher remoteJobs 0
scalar FogNoLB.fog[66].dispatcher probeQueries 0
scalar FogNoLB.fog[66].dispatcher probeAnswers 0
scalar FogNoLB.fog[66].dispatcher droppedJobsSLA 0
scalar FogNoLB.fog[66].dispatcher jobs_class_1 5870
scalar FogNoLB.fog[66].dispatcher localJobs_class_1 5870
scalar FogNoLB.fog[66].server[0] rho 0.89444291591644
scalar FogNoLB.fog[66].server[0] congestionRatio 0
scalar FogNoLB.fog[66].server[0] totalJobs 5870
scalar FogNoLB.fog[66].server[0] droppedJobsQueue 17
scalar FogNoLB.fog[66].server[0] droppedJobsTimout 235
scalar FogNoLB.fog[66].server[0] droppedJobsSLA 0
scalar FogNoLB.fog[66].server[0] droppedJobsTotal 252
scalar FogNoLB.fog[67].dispatcher localJobs 5878
scalar FogNoLB.fog[67].dispatcher remoteJobs 0
scalar FogNoLB.fog[67].dispatcher probeQueries 0
scalar FogNoLB.fog[67].dispatcher probeAnswers 0
scalar FogNoLB.fog[67].dispatcher droppedJobsSLA 0
scalar FogNoLB.fog[67].dispatcher jobs_class_1 5878
scalar FogNoLB.fog[67].dispatcher localJobs_class_1 5878
scalar FogNoLB.fog[67].server[0] rho 0.89269286394119
scalar FogNoLB.fog[67].server[0] congestionRatio 0
scalar FogNoLB.fog[67].server[0] totalJobs 5878
scalar FogNoLB.fog[67].server[0] droppedJobsQueue 9
scalar FogNoLB.fog[67].server[0] droppedJobsTimout 320
scalar FogNoLB.fog[67].server[0] droppedJobsSLA 0
scalar FogNoLB.fog[67].server[0] droppedJobsTotal 329
scalar FogNoLB.fog[68].dispatcher localJobs 5899
scalar FogNoLB.fog[68].dispatcher remoteJobs 0
scalar FogNoLB.fog[68].dispatcher probeQueries 0
scalar FogNoLB.fog[68].dispatcher probeAnswers 0
scalar FogNoLB.fog[68].dispatcher droppedJobsSLA 0
scalar FogNoLB.fog[68].dispatcher jobs_class_1 5899
scalar FogNoLB.fog[68].dispatcher localJobs_class_1 5899
scalar FogNoLB.fog[68].server[0] rho 0.89538407325745
scalar FogNoLB.fog[68].server[0] congestionRatio 0
scalar FogNoLB.fog[68].server[0] totalJobs 5899
scalar FogNoLB.fog[68].server[0] droppedJobsQueue 18
scalar FogNoLB.fog[68].server[0] droppedJobsTimout 299
scalar FogNoLB.fog[68].server[0] droppedJobsSLA 0
scalar FogNoLB.fog[68].server[0] droppedJobsTotal 317
scalar FogNoLB.fog[69].dispatcher localJobs 5767
scalar FogNoLB.fog[69].dispatcher remoteJobs 0
scalar FogNoLB.fog[69].dispatcher probeQueries 0
scalar FogNoLB.fog[69].dispatcher probeAnswers 0
scalar FogNoLB.fog[69].dispatcher droppedJobsSLA 0
scalar FogNoLB.fog[69].dispatcher jobs_class_1 5767
scalar FogNoLB.fog[69].dispatcher localJobs_class_1 5767
scalar FogNoLB.fog[69].server[0] rho 0.8822106719017
scalar FogNoLB.fog[69].server[0] congestionRatio 0
scalar FogNoLB.fog[69].server[0] totalJobs 5767
scalar FogNoLB.fog[69].server[0] droppedJobsQueue 6
scalar FogNoLB.fog[69].server[0] droppedJobsTimout 208
scalar FogNoLB.fog[69].server[0] droppedJobsSLA 0
scalar FogNoLB.fog[69].server[0] droppedJobsTotal 214
scalar FogNoLB.fog[70].dispatcher localJobs 5800
scalar FogNoLB.fog[70].dispatcher remoteJobs 0
scalar FogNoLB.fog[70].dispatcher probeQueries 0
scalar FogNoLB.fog[70].dispatcher probeAnswers 0
scalar FogNoLB.fog[70].dispatcher droppedJobsSLA 0
scalar FogNoLB.fog[70].dispatcher jobs_class_1 5800
scalar FogNoLB.fog[70].dispatcher localJobs_class_1 5800
scalar FogNoLB.fog[70].server[0] rho 0.88518100976944
scalar FogNoLB.fog[70].server[0] congestionRatio 0
scalar FogNoLB.fog[70].server[0] totalJobs 5800
scalar FogNoLB.fog[70].server[0] droppedJobsQueue 7
scalar FogNoLB.fog[70].server[0] droppedJobsTimout 246
scalar FogNoLB.fog[70].server[0] droppedJobsSLA 0
scalar FogNoLB.fog[70].server[0] droppedJobsTotal 253
scalar FogNoLB.fog[71].dispatcher localJobs 5777
scalar FogNoLB.fog[71].dispatcher remoteJobs 0
scalar FogNoLB.fog[71].dispatcher probeQueries 0
scalar FogNoLB.fog[71].dispatcher probeAnswers 0
scalar FogNoLB.fog[71].dispatcher droppedJobsSLA 0
scalar FogNoLB.fog[71].dispatcher jobs_class_1 5777
scalar FogNoLB.fog[71].dispatcher localJobs_class_1 5777
scalar FogNoLB.fog[71].server[0] rho 0.88020402193069
scalar FogNoLB.fog[71].server[0] congestionRatio 0
scalar FogNoLB.fog[71].server[0] totalJobs 5777
scalar FogNoLB.fog[71].server[0] droppedJobsQueue 13
scalar FogNoLB.fog[71].server[0] droppedJobsTimout 238
scalar FogNoLB.fog[71].server[0] droppedJobsSLA 0
scalar FogNoLB.fog[71].server[0] droppedJobsTotal 251
scalar FogNoLB.fog[72].dispatcher localJobs 5885
scalar FogNoLB.fog[72].dispatcher remoteJobs 0
scalar FogNoLB.fog[72].dispatcher probeQueries 0
scalar FogNoLB.fog[72].dispatcher probeAnswers 0
scalar FogNoLB.fog[72].dispatcher droppedJobsSLA 0
scalar FogNoLB.fog[72].dispatcher jobs_class_1 5885
scalar FogNoLB.fog[72].dispatcher localJobs_class_1 5885
scalar FogNoLB.fog[72].server[0] rho 0.89424079656601
scalar FogNoLB.fog[72].server[0] congestionRatio 0
scalar FogNoLB.fog[72].server[0] totalJobs 5885
scalar FogNoLB.fog[72].server[0] droppedJobsQueue 16
scalar FogNoLB.fog[72].server[0] droppedJobsTimout 281
scalar FogNoLB.fog[72].server[0] droppedJobsSLA 0
scalar FogNoLB.fog[72].server[0] droppedJobsTotal 297
scalar FogNoLB.fog[73].dispatcher localJobs 5757
scalar FogNoLB.fog[73].dispatcher remoteJobs 0
scalar FogNoLB.fog[73].dispatcher probeQueries 0
scalar FogNoLB.fog[73].dispatcher probeAnswers 0
scalar FogNoLB.fog[73].dispatcher droppedJobsSLA 0
scalar FogNoLB.fog[73].dispatcher jobs_class_1 5757
scalar FogNoLB.fog[73].dispatcher localJobs_class_1 5757
scalar FogNoLB.fog[73].server[0] rho 0.87382262945175
scalar FogNoLB.fog[73].server[0] congestionRatio 0
scalar FogNoLB.fog[73].server[0] totalJobs 5757
scalar FogNoLB.fog[73].server[0] droppedJobsQueue 15
scalar FogNoLB.fog[73].server[0] droppedJobsTimout 312
scalar FogNoLB.fog[73].server[0] droppedJobsSLA 0
scalar FogNoLB.fog[73].server[0] droppedJobsTotal 327
scalar FogNoLB.fog[74].dispatcher localJobs 5838
scalar FogNoLB.fog[74].dispatcher remoteJobs 0
scalar FogNoLB.fog[74].dispatcher probeQueries 0
scalar FogNoLB.fog[74].dispatcher probeAnswers 0
scalar FogNoLB.fog[74].dispatcher droppedJobsSLA 0
scalar FogNoLB.fog[74].dispatcher jobs_class_1 5838
scalar FogNoLB.fog[74].dispatcher localJobs_class_1 5838
scalar FogNoLB.fog[74].server[0] rho 0.8900488615036
scalar FogNoLB.fog[74].server[0] congestionRatio 0
scalar FogNoLB.fog[74].server[0] totalJobs 5838
scalar FogNoLB.fog[74].server[0] droppedJobsQueue 6
scalar FogNoLB.fog[74].server[0] droppedJobsTimout 221
scalar FogNoLB.fog[74].server[0] droppedJobsSLA 0
scalar FogNoLB.fog[74].server[0] droppedJobsTotal 227
scalar FogNoLB.fog[75].dispatcher localJobs 5839
scalar FogNoLB.fog[75].dispatcher remoteJobs 0
scalar FogNoLB.fog[75].dispatcher probeQueries 0
scalar FogNoLB.fog[75].dispatcher probeAnswers 0
scalar FogNoLB.fog[75].dispatcher droppedJobsSLA 0
scalar FogNoLB.fog[75].dispatcher jobs_class_1 5839
scalar FogNoLB.fog[75].dispatcher localJobs_class_1 5839
scalar FogNoLB.fog[75].server[0] rho 0.89276868104935
scalar FogNoLB.fog[75].server[0] congestionRatio 0
scalar FogNoLB.fog[75].server[0] totalJobs 5839
scalar FogNoLB.fog[75].server[0] droppedJobsQueue 8
scalar FogNoLB.fog[75].server[0] droppedJobsTimout 189
scalar FogNoLB.fog[75].server[0] droppedJobsSLA 0
scalar FogNoLB.fog[75].server[0] droppedJobsTotal 197
scalar FogNoLB.fog[76].dispatcher localJobs 5845
scalar FogNoLB.fog[76].dispatcher remoteJobs 0
scalar FogNoLB.fog[76].dispatcher probeQueries 0
scalar FogNoLB.fog[76].dispatcher probeAnswers 0
scalar FogNoLB.fog[76].dispatcher droppedJobsSLA 0
scalar FogNoLB.fog[76].dispatcher jobs_class_1 5845
scalar FogNoLB.fog[76].dispatcher localJobs_class_1 5845
scalar FogNoLB.fog[76].server[0] rho 0.89454901218414
scalar FogNoLB.fog[76].server[0] congestionRatio 0
scalar FogNoLB.fog[76].server[0] totalJobs 5845
scalar FogNoLB.fog[76].server[0] droppedJobsQueue 7
scalar FogNoLB.fog[76].server[0] droppedJobsTimout 201
scalar FogNoLB.fog[76].server[0] droppedJobsSLA 0
scalar FogNoLB.fog[76].server[0] droppedJobsTotal 208
scalar FogNoLB.fog[77].dispatcher localJobs 5723
scalar FogNoLB.fog[77].dispatcher remoteJobs 0
scalar FogNoLB.fog[77].dispatcher probeQueries 0
scalar FogNoLB.fog[77].dispatcher probeAnswers 0
scalar FogNoLB.fog[77].dispatcher droppedJobsSLA 0
scalar FogNoLB.fog[77].dispatcher jobs_class_1 5723
scalar FogNoLB.fog[77].dispatcher localJobs_class_1 5723
scalar FogNoLB.fog[77].server[0] rho 0.87582165002823
scalar FogNoLB.fog[77].server[0] congestionRatio 0
scalar FogNoLB.fog[77].server[0] totalJobs 5723
scalar FogNoLB.fog[77].server[0] droppedJobsQueue 5
scalar FogNoLB.fog[77].server[0] droppedJobsTimout 138
scalar FogNoLB.fog[77].server[0] droppedJobsSLA 0
scalar FogNoLB.fog[77].server[0] droppedJobsTotal 143
scalar FogNoLB.fog[78].dispatcher localJobs 5822
scalar FogNoLB.fog[78].dispatcher remoteJobs 0
scalar FogNoLB.fog[78].dispatcher probeQueries 0
scalar FogNoLB.fog[78].dispatcher probeAnswers 0
scalar FogNoLB.fog[78].dispatcher droppedJobsSLA 0
scalar FogNoLB.fog[78].dispatcher jobs_class_1 5822
scalar FogNoLB.fog[78].dispatcher localJobs_class_1 5822
scalar FogNoLB.fog[78].server[0] rho 0.88790440559387
scalar FogNoLB.fog[78].server[0] congestionRatio 0
scalar FogNoLB.fog[78].server[0] totalJobs 5822
scalar FogNoLB.fog[78].server[0] droppedJobsQueue 14
scalar FogNoLB.fog[78].server[0] droppedJobsTimout 227
scalar FogNoLB.fog[78].server[0] droppedJobsSLA 0
scalar FogNoLB.fog[78].server[0] droppedJobsTotal 241
scalar FogNoLB.fog[79].dispatcher localJobs 6005
scalar FogNoLB.fog[79].dispatcher remoteJobs 0
scalar FogNoLB.fog[79].dispatcher probeQueries 0
scalar FogNoLB.fog[79].dispatcher probeAnswers 0
scalar FogNoLB.fog[79].dispatcher droppedJobsSLA 0
scalar FogNoLB.fog[79].dispatcher jobs_class_1 6005
scalar FogNoLB.fog[79].dispatcher localJobs_class_1 6005
scalar FogNoLB.fog[79].server[0] rho 0.91248857975006
scalar FogNoLB.fog[79].server[0] congestionRatio 0
scalar FogNoLB.fog[79].server[0] totalJobs 6005
scalar FogNoLB.fog[79].server[0] droppedJobsQueue 10
scalar FogNoLB.fog[79].server[0] droppedJobsTimout 365
scalar FogNoLB.fog[79].server[0] droppedJobsSLA 0
scalar FogNoLB.fog[79].server[0] droppedJobsTotal 375
scalar FogNoLB.fog[80].dispatcher localJobs 5885
scalar FogNoLB.fog[80].dispatcher remoteJobs 0
scalar FogNoLB.fog[80].dispatcher probeQueries 0
scalar FogNoLB.fog[80].dispatcher probeAnswers 0
scalar FogNoLB.fog[80].dispatcher droppedJobsSLA 0
scalar FogNoLB.fog[80].dispatcher jobs_class_1 5885
scalar FogNoLB.fog[80].dispatcher localJobs_class_1 5885
scalar FogNoLB.fog[80].server[0] rho 0.89592051506042
scalar FogNoLB.fog[80].server[0] congestionRatio 0
scalar FogNoLB.fog[80].server[0] totalJobs 5885
scalar FogNoLB.fog[80].server[0] droppedJobsQueue 12
scalar FogNoLB.fog[80].server[0] droppedJobsTimout 283
scalar FogNoLB.fog[80].server[0] droppedJobsSLA 0
scalar FogNoLB.fog[80].server[0] droppedJobsTotal 295
scalar FogNoLB.fog[81].dispatcher localJobs 5911
scalar FogNoLB.fog[81].dispatcher remoteJobs 0
scalar FogNoLB.fog[81].dispatcher probeQueries 0
scalar FogNoLB.fog[81].dispatcher probeAnswers 0
scalar FogNoLB.fog[81].dispatcher droppedJobsSLA 0
scalar FogNoLB.fog[81].dispatcher jobs_class_1 5911
scalar FogNoLB.fog[81].dispatcher localJobs_class_1 5911
scalar FogNoLB.fog[81].server[0] rho 0.8985869884491
scalar FogNoLB.fog[81].server[0] congestionRatio 0
scalar FogNoLB.fog[81].server[0] totalJobs 5911
scalar FogNoLB.fog[81].server[0] droppedJobsQueue 11
scalar FogNoLB.fog[81].server[0] droppedJobsTimout 264
scalar FogNoLB.fog[81].server[0] droppedJobsSLA 0
scalar FogNoLB.fog[81].server[0] droppedJobsTotal 275
scalar FogNoLB.fog[82].dispatcher localJobs 5790
scalar FogNoLB.fog[82].dispatcher remoteJobs 0
scalar FogNoLB.fog[82].dispatcher probeQueries 0
scalar FogNoLB.fog[82].dispatcher probeAnswers 0
scalar FogNoLB.fog[82].dispatcher droppedJobsSLA 0
scalar FogNoLB.fog[82].dispatcher jobs_class_1 5790
scalar FogNoLB.fog[82].dispatcher localJobs_class_1 5790
scalar FogNoLB.fog[82].server[0] rho 0.88693350553513
scalar FogNoLB.fog[82].server[0] congestionRatio 0
scalar FogNoLB.fog[82].server[0] totalJobs 5790
scalar FogNoLB.fog[82].server[0] droppedJobsQueue 3
scalar FogNoLB.fog[82].server[0] droppedJobsTimout 192
scalar FogNoLB.fog[82].server[0] droppedJobsSLA 0
scalar FogNoLB.fog[82].server[0] droppedJobsTotal 195
scalar FogNoLB.fog[83].dispatcher localJobs 5883
scalar FogNoLB.fog[83].dispatcher remoteJobs 0
scalar FogNoLB.fog[83].dispatcher probeQueries 0
scalar FogNoLB.fog[83].dispatcher probeAnswers 0
scalar FogNoLB.fog[83].dispatcher droppedJobsSLA 0
scalar FogNoLB.fog[83].dispatcher jobs_class_1 5883
scalar FogNoLB.fog[83].dispatcher localJobs_class_1 5883
scalar FogNoLB.fog[83].server[0] rho 0.89871203899384
scalar FogNoLB.fog[83].server[0] congestionRatio 0
scalar FogNoLB.fog[83].server[0] totalJobs 5883
scalar FogNoLB.fog[83].server[0] droppedJobsQueue 2
scalar FogNoLB.fog[83].server[0] droppedJobsTimout 214
scalar FogNoLB.fog[83].server[0] droppedJobsSLA 0
scalar FogNoLB.fog[83].server[0] droppedJobsTotal 216
scalar FogNoLB.fog[84].dispatcher localJobs 5760
scalar FogNoLB.fog[84].dispatcher remoteJobs 0
scalar FogNoLB.fog[84].dispatcher probeQueries 0
scalar FogNoLB.fog[84].dispatcher probeAnswers 0
scalar FogNoLB.fog[84].dispatcher droppedJobsSLA 0
scalar FogNoLB.fog[84].dispatcher jobs_class_1 5760
scalar FogNoLB.fog[84].dispatcher localJobs_class_1 5760
scalar FogNoLB.fog[84].server[0] rho 0.88470393419266
scalar FogNoLB.fog[84].server[0] congestionRatio 0
scalar FogNoLB.fog[84].server[0] totalJobs 5760
scalar FogNoLB.fog[84].server[0] droppedJobsQueue 3
scalar FogNoLB.fog[84].server[0] droppedJobsTimout 152
scalar FogNoLB.fog[84].server[0] droppedJobsSLA 0
scalar FogNoLB.fog[84].server[0] droppedJobsTotal 155
scalar FogNoLB.fog[85].dispatcher localJobs 5739
scalar FogNoLB.fog[85].dispatcher remoteJobs 0
scalar FogNoLB.fog[85].dispatcher probeQueries 0
scalar FogNoLB.fog[85].dispatcher probeAnswers 0
scalar FogNoLB.fog[85].dispatcher droppedJobsSLA 0
scalar FogNoLB.fog[85].dispatcher jobs_class_1 5739
scalar FogNoLB.fog[85].dispatcher localJobs_class_1 5739
scalar FogNoLB.fog[85].server[0] rho 0.87884229421616
scalar FogNoLB.fog[85].server[0] congestionRatio 0
scalar FogNoLB.fog[85].server[0] totalJobs 5739
scalar FogNoLB.fog[85].server[0] droppedJobsQueue 6
scalar FogNoLB.fog[85].server[0] droppedJobsTimout 172
scalar FogNoLB.fog[85].server[0] droppedJobsSLA 0
scalar FogNoLB.fog[85].server[0] droppedJobsTotal 178
scalar FogNoLB.fog[86].dispatcher localJobs 5837
scalar FogNoLB.fog[86].dispatcher remoteJobs 0
scalar FogNoLB.fog[86].dispatcher probeQueries 0
scalar FogNoLB.fog[86].dispatcher probeAnswers 0
scalar FogNoLB.fog[86].dispatcher droppedJobsSLA 0
scalar FogNoLB.fog[86].dispatcher jobs_class_1 5837
scalar FogNoLB.fog[86].dispatcher localJobs_class_1 5837
scalar FogNoLB.fog[86].server[0] rho 0.89375704526901
scalar FogNoLB.fog[86].server[0] congestionRatio 0
scalar FogNoLB.fog[86].server[0] totalJobs 5837
scalar FogNoLB.fog[86].server[0] droppedJobsQueue 7
scalar FogNoLB.fog[86].server[0] droppedJobsTimout 173
scalar FogNoLB.fog[86].server[0] droppedJobsSLA 0
scalar FogNoLB.fog[86].server[0] droppedJobsTotal 180
scalar FogNoLB.fog[87].dispatcher localJobs 5810
scalar FogNoLB.fog[87].dispatcher remoteJobs 0
scalar FogNoLB.fog[87].dispatcher probeQueries 0
scalar FogNoLB.fog[87].dispatcher probeAnswers 0
scalar FogNoLB.fog[87].dispatcher droppedJobsSLA 0
scalar FogNoLB.fog[87].dispatcher jobs_class_1 5810
scalar FogNoLB.fog[87].dispatcher localJobs_class_1 5810
scalar FogNoLB.fog[87].server[0] rho 0.88729023933411
scalar FogNoLB.fog[87].server[0] congestionRatio 0
scalar FogNoLB.fog[87].server[0] totalJobs 5810
scalar FogNoLB.fog[87].server[0] droppedJobsQueue 7
scalar FogNoLB.fog[87].server[0] droppedJobsTimout 247
scalar FogNoLB.fog[87].server[0] droppedJobsSLA 0
scalar FogNoLB.fog[87].server[0] droppedJobsTotal 254
scalar FogNoLB.fog[88].dispatcher localJobs 5869
scalar FogNoLB.fog[88].dispatcher remoteJobs 0
scalar FogNoLB.fog[88].dispatcher probeQueries 0
scalar FogNoLB.fog[88].dispatcher probeAnswers 0
scalar FogNoLB.fog[88].dispatcher droppedJobsSLA 0
scalar FogNoLB.fog[88].dispatcher jobs_class_1 5869
scalar FogNoLB.fog[88].dispatcher localJobs_class_1 5869
scalar FogNoLB.fog[88].server[0] rho 0.89045345783234
scalar FogNoLB.fog[88].server[0] congestionRatio 0
scalar FogNoLB.fog[88].server[0] totalJobs 5869
scalar FogNoLB.fog[88].server[0] droppedJobsQueue 6
scalar FogNoLB.fog[88].server[0] droppedJobsTimout 350
scalar FogNoLB.fog[88].server[0] droppedJobsSLA 0
scalar FogNoLB.fog[88].server[0] droppedJobsTotal 356
scalar FogNoLB.fog[89].dispatcher localJobs 5787
scalar FogNoLB.fog[89].dispatcher remoteJobs 0
scalar FogNoLB.fog[89].dispatcher probeQueries 0
scalar FogNoLB.fog[89].dispatcher probeAnswers 0
scalar FogNoLB.fog[89].dispatcher droppedJobsSLA 0
scalar FogNoLB.fog[89].dispatcher jobs_class_1 5787
scalar FogNoLB.fog[89].dispatcher localJobs_class_1 5787
scalar FogNoLB.fog[89].server[0] rho 0.88586628437042
scalar FogNoLB.fog[89].server[0] congestionRatio 0
scalar FogNoLB.fog[89].server[0] totalJobs 5787
scalar FogNoLB.fog[89].server[0] droppedJobsQueue 8
scalar FogNoLB.fog[89].server[0] droppedJobsTimout 173
scalar FogNoLB.fog[89].server[0] droppedJobsSLA 0
scalar FogNoLB.fog[89].server[0] droppedJobsTotal 181
scalar FogNoLB.fog[90].dispatcher localJobs 5759
scalar FogNoLB.fog[90].dispatcher remoteJobs 0
scalar FogNoLB.fog[90].dispatcher probeQueries 0
scalar FogNoLB.fog[90].dispatcher probeAnswers 0
scalar FogNoLB.fog[90].dispatcher droppedJobsSLA 0
scalar FogNoLB.fog[90].dispatcher jobs_class_1 5759
scalar FogNoLB.fog[90].dispatcher localJobs_class_1 5759
scalar FogNoLB.fog[90].server[0] rho 0.87806576490402
scalar FogNoLB.fog[90].server[0] congestionRatio 0
scalar FogNoLB.fog[90].server[0] totalJobs 5759
scalar FogNoLB.fog[90].server[0] droppedJobsQueue 16
scalar FogNoLB.fog[90].server[0] droppedJobsTimout 211
scalar FogNoLB.fog[90].server[0] droppedJobsSLA 0
scalar FogNoLB.fog[90].server[0] droppedJobsTotal 227
scalar FogNoLB.fog[91].dispatcher localJobs 5766
scalar FogNoLB.fog[91].dispatcher remoteJobs 0
scalar FogNoLB.fog[91].dispatcher probeQueries 0
scalar FogNoLB.fog[91].dispatcher probeAnswers 0
scalar FogNoLB.fog[91].dispatcher droppedJobsSLA 0
scalar FogNoLB.fog[91].dispatcher jobs_class_1 5766
scalar FogNoLB.fog[91].dispatcher localJobs_class_1 5766
scalar FogNoLB.fog[91].server[0] rho 0.88352298736572
scalar FogNoLB.fog[91].server[0] congestionRatio 0
scalar FogNoLB.fog[91].server[0] totalJobs 5766
scalar FogNoLB.fog[91].server[0] droppedJobsQueue 9
scalar FogNoLB.fog[91].server[0] droppedJobsTimout 168
scalar FogNoLB.fog[91].server[0] droppedJobsSLA 0
scalar FogNoLB.fog[91].server[0] droppedJobsTotal 177
scalar FogNoLB.fog[92].dispatcher localJobs 5796
scalar FogNoLB.fog[92].dispatcher remoteJobs 0
scalar FogNoLB.fog[92].dispatcher probeQueries 0
scalar FogNoLB.fog[92].dispatcher probeAnswers 0
scalar FogNoLB.fog[92].dispatcher droppedJobsSLA 0
scalar FogNoLB.fog[92].dispatcher jobs_class_1 5796
scalar FogNoLB.fog[92].dispatcher localJobs_class_1 5796
scalar FogNoLB.fog[92].server[0] rho 0.88944965600967
scalar FogNoLB.fog[92].server[0] congestionRatio 0
scalar FogNoLB.fog[92].server[0] totalJobs 5796
scalar FogNoLB.fog[92].server[0] droppedJobsQueue 3
scalar FogNoLB.fog[92].server[0] droppedJobsTimout 152
scalar FogNoLB.fog[92].server[0] droppedJobsSLA 0
scalar FogNoLB.fog[92].server[0] droppedJobsTotal 155
scalar FogNoLB.fog[93].dispatcher localJobs 5785
scalar FogNoLB.fog[93].dispatcher remoteJobs 0
scalar FogNoLB.fog[93].dispatcher probeQueries 0
scalar FogNoLB.fog[93].dispatcher probeAnswers 0
scalar FogNoLB.fog[93].dispatcher droppedJobsSLA 0
scalar FogNoLB.fog[93].dispatcher jobs_class_1 5785
scalar FogNoLB.fog[93].dispatcher localJobs_class_1 5785
scalar FogNoLB.fog[93].server[0] rho 0.88280892372131
scalar FogNoLB.fog[93].server[0] congestionRatio 0
scalar FogNoLB.fog[93].server[0] totalJobs 5785
scalar FogNoLB.fog[93].server[0] droppedJobsQueue 10
scalar FogNoLB.fog[93].server[0] droppedJobsTimout 227
scalar FogNoLB.fog[93].server[0] droppedJobsSLA 0
scalar FogNoLB.fog[93].server[0] droppedJobsTotal 237
scalar FogNoLB.fog[94].dispatcher localJobs 5816
scalar FogNoLB.fog[94].dispatcher remoteJobs 0
scalar FogNoLB.fog[94].dispatcher probeQueries 0
scalar FogNoLB.fog[94].dispatcher probeAnswers 0
scalar FogNoLB.fog[94].dispatcher droppedJobsSLA 0
scalar FogNoLB.fog[94].dispatcher jobs_class_1 5816
scalar FogNoLB.fog[94].dispatcher localJobs_class_1 5816
scalar FogNoLB.fog[94].server[0] rho 0.88588380813599
scalar FogNoLB.fog[94].server[0] congestionRatio 0
scalar FogNoLB.fog[94].server[0] totalJobs 5816
scalar FogNoLB.fog[94].server[0] droppedJobsQueue 10
scalar FogNoLB.fog[94].server[0] droppedJobsTimout 256
scalar FogNoLB.fog[94].server[0] droppedJobsSLA 0
scalar FogNoLB.fog[94].server[0] droppedJobsTotal 266
scalar FogNoLB.fog[95].dispatcher localJobs 5861
scalar FogNoLB.fog[95].dispatcher remoteJobs 0
scalar FogNoLB.fog[95].dispatcher probeQueries 0
scalar FogNoLB.fog[95].dispatcher probeAnswers 0
scalar FogNoLB.fog[95].dispatcher droppedJobsSLA 0
scalar FogNoLB.fog[95].dispatcher jobs_class_1 5861
scalar FogNoLB.fog[95].dispatcher localJobs_class_1 5861
scalar FogNoLB.fog[95].server[0] rho 0.89167296886444
scalar FogNoLB.fog[95].server[0] congestionRatio 0
scalar FogNoLB.fog[95].server[0] totalJobs 5861
scalar FogNoLB.fog[95].server[0] droppedJobsQueue 12
scalar FogNoLB.fog[95].server[0] droppedJobsTimout 276
scalar FogNoLB.fog[95].server[0] droppedJobsSLA 0
scalar FogNoLB.fog[95].server[0] droppedJobsTotal 288
scalar FogNoLB.fog[96].dispatcher localJobs 5898
scalar FogNoLB.fog[96].dispatcher remoteJobs 0
scalar FogNoLB.fog[96].dispatcher probeQueries 0
scalar FogNoLB.fog[96].dispatcher probeAnswers 0
scalar FogNoLB.fog[96].dispatcher droppedJobsSLA 0
scalar FogNoLB.fog[96].dispatcher jobs_class_1 5898
scalar FogNoLB.fog[96].dispatcher localJobs_class_1 5898
scalar FogNoLB.fog[96].server[0] rho 0.89756941795349
scalar FogNoLB.fog[96].server[0] congestionRatio 0
scalar FogNoLB.fog[96].server[0] totalJobs 5898
scalar FogNoLB.fog[96].server[0] droppedJobsQueue 13
scalar FogNoLB.fog[96].server[0] droppedJobsTimout 280
scalar FogNoLB.fog[96].server[0] droppedJobsSLA 0
scalar FogNoLB.fog[96].server[0] droppedJobsTotal 293
scalar FogNoLB.fog[97].dispatcher localJobs 5796
scalar FogNoLB.fog[97].dispatcher remoteJobs 0
scalar FogNoLB.fog[97].dispatcher probeQueries 0
scalar FogNoLB.fog[97].dispatcher probeAnswers 0
scalar FogNoLB.fog[97].dispatcher droppedJobsSLA 0
scalar FogNoLB.fog[97].dispatcher jobs_class_1 5796
scalar FogNoLB.fog[97].dispatcher localJobs_class_1 5796
scalar FogNoLB.fog[97].server[0] rho 0.88481450080872
scalar FogNoLB.fog[97].server[0] congestionRatio 0
scalar FogNoLB.fog[97].server[0] totalJobs 5796
scalar FogNoLB.fog[97].server[0] droppedJobsQueue 8
scalar FogNoLB.fog[97].server[0] droppedJobsTimout 207
scalar FogNoLB.fog[97].server[0] droppedJobsSLA 0
scalar FogNoLB.fog[97].server[0] droppedJobsTotal 215
scalar FogNoLB.fog[98].dispatcher localJobs 5720
scalar FogNoLB.fog[98].dispatcher remoteJobs 0
scalar FogNoLB.fog[98].dispatcher probeQueries 0
scalar FogNoLB.fog[98].dispatcher probeAnswers 0
scalar FogNoLB.fog[98].dispatcher droppedJobsSLA 0
scalar FogNoLB.fog[98].dispatcher jobs_class_1 5720
scalar FogNoLB.fog[98].dispatcher localJobs_class_1 5720
scalar FogNoLB.fog[98].server[0] rho 0.87682521343231
scalar FogNoLB.fog[98].server[0] congestionRatio 0
scalar FogNoLB.fog[98].server[0] totalJobs 5720
scalar FogNoLB.fog[98].server[0] droppedJobsQueue 5
scalar FogNoLB.fog[98].server[0] droppedJobsTimout 160
scalar FogNoLB.fog[98].server[0] droppedJobsSLA 0
scalar FogNoLB.fog[98].server[0] droppedJobsTotal 165
scalar FogNoLB.fog[99].dispatcher localJobs 5765
scalar FogNoLB.fog[99].dispatcher remoteJobs 0
scalar FogNoLB.fog[99].dispatcher probeQueries 0
scalar FogNoLB.fog[99].dispatcher probeAnswers 0
scalar FogNoLB.fog[99].dispatcher droppedJobsSLA 0
scalar FogNoLB.fog[99].dispatcher jobs_class_1 5765
scalar FogNoLB.fog[99].dispatcher localJobs_class_1 5765
scalar FogNoLB.fog[99].server[0] rho 0.87867480516434
scalar FogNoLB.fog[99].server[0] congestionRatio 0
scalar FogNoLB.fog[99].server[0] totalJobs 5765
scalar FogNoLB.fog[99].server[0] droppedJobsQueue 7
scalar FogNoLB.fog[99].server[0] droppedJobsTimout 264
scalar FogNoLB.fog[99].server[0] droppedJobsSLA 0
scalar FogNoLB.fog[99].server[0] droppedJobsTotal 271
scalar FogNoLB.sink avg_responseTime_1 6.486926933153
scalar FogNoLB.sink p90_responseTime_1 1.513868469115
scalar FogNoLB.sink med_responseTime_1 1.513868469115
scalar FogNoLB.sink avg_delayTime_1 0
scalar FogNoLB.sink p90_delayTime_1 0
scalar FogNoLB.sink med_delayTime_1 0
scalar FogNoLB.sink avg_queuingTime_1 4.8170102102688
scalar FogNoLB.sink p90_queuingTime_1 0
scalar FogNoLB.sink med_queuingTime_1 0
scalar FogNoLB.sink avg_serviceTime_1 1.6699167228843
scalar FogNoLB.sink p90_serviceTime_1 1.50469310751
scalar FogNoLB.sink med_serviceTime_1 1.50469310751
scalar FogNoLB.sink avg_balancerTime_1 0
scalar FogNoLB.sink p90_balancerTime_1 0
scalar FogNoLB.sink med_balancerTime_1 0
scalar FogNoLB.sink avg_balancerCount_1 1
scalar FogNoLB.sink p90_balancerCount_1 1
scalar FogNoLB.sink med_balancerCount_1 1

