version 2
run Fog-mul_001-rho_08-thr_12-3-20190711-19:34:44-53399
attr configname Fog-mul_001-rho_08-thr_12
attr datetime 20190711-19:34:44
attr experiment Fog-mul_001-rho_08-thr_12
attr inifile FogQueueLen.ini
attr iterationvars ""
attr iterationvarsf ""
attr measurement ""
attr network FogNoLB
attr processid 53399
attr repetition 3
attr replication #3
attr resultdir results
attr runnumber 3
attr seedset 3
param FogNoLB.proctimeMul 0.01
param FogNoLB.rho 0.8
param FogNoLB.fog[*].server[*].capacity 12
param FogNoLB.nSources 100
param FogNoLB.rho 0.9
param FogNoLB.proctimeMul 1.0
param FogNoLB.source[*].appId 1
param FogNoLB.fog[*].nServers 1
param FogNoLB.fog[*].dispatcher.fanOut 1
param FogNoLB.fog[*].server[*].timeSlice -1s
param FogNoLB.fog[*].server[*].capacity 5
param FogNoLB.fog[*].server[*].fifo true
param FogNoLB.fog[*].server[*].maxServiceTime -1s

scalar FogNoLB.fog[0].dispatcher localJobs 517790
scalar FogNoLB.fog[0].dispatcher remoteJobs 0
scalar FogNoLB.fog[0].dispatcher probeQueries 0
scalar FogNoLB.fog[0].dispatcher probeAnswers 0
scalar FogNoLB.fog[0].dispatcher droppedJobsSLA 0
scalar FogNoLB.fog[0].dispatcher jobs_class_1 517790
scalar FogNoLB.fog[0].dispatcher localJobs_class_1 517790
scalar FogNoLB.fog[0].server[0] rho 0.79890424013138
scalar FogNoLB.fog[0].server[0] congestionRatio 0
scalar FogNoLB.fog[0].server[0] totalJobs 517790
scalar FogNoLB.fog[0].server[0] droppedJobsQueue 323
scalar FogNoLB.fog[0].server[0] droppedJobsTimout 3848
scalar FogNoLB.fog[0].server[0] droppedJobsSLA 0
scalar FogNoLB.fog[0].server[0] droppedJobsTotal 4171
scalar FogNoLB.fog[1].dispatcher localJobs 517934
scalar FogNoLB.fog[1].dispatcher remoteJobs 0
scalar FogNoLB.fog[1].dispatcher probeQueries 0
scalar FogNoLB.fog[1].dispatcher probeAnswers 0
scalar FogNoLB.fog[1].dispatcher droppedJobsSLA 0
scalar FogNoLB.fog[1].dispatcher jobs_class_1 517934
scalar FogNoLB.fog[1].dispatcher localJobs_class_1 517934
scalar FogNoLB.fog[1].server[0] rho 0.79913240671158
scalar FogNoLB.fog[1].server[0] congestionRatio 0
scalar FogNoLB.fog[1].server[0] totalJobs 517934
scalar FogNoLB.fog[1].server[0] droppedJobsQueue 330
scalar FogNoLB.fog[1].server[0] droppedJobsTimout 3691
scalar FogNoLB.fog[1].server[0] droppedJobsSLA 0
scalar FogNoLB.fog[1].server[0] droppedJobsTotal 4021
scalar FogNoLB.fog[2].dispatcher localJobs 517549
scalar FogNoLB.fog[2].dispatcher remoteJobs 0
scalar FogNoLB.fog[2].dispatcher probeQueries 0
scalar FogNoLB.fog[2].dispatcher probeAnswers 0
scalar FogNoLB.fog[2].dispatcher droppedJobsSLA 0
scalar FogNoLB.fog[2].dispatcher jobs_class_1 517549
scalar FogNoLB.fog[2].dispatcher localJobs_class_1 517549
scalar FogNoLB.fog[2].server[0] rho 0.79835593700409
scalar FogNoLB.fog[2].server[0] congestionRatio 0
scalar FogNoLB.fog[2].server[0] totalJobs 517549
scalar FogNoLB.fog[2].server[0] droppedJobsQueue 371
scalar FogNoLB.fog[2].server[0] droppedJobsTimout 4230
scalar FogNoLB.fog[2].server[0] droppedJobsSLA 0
scalar FogNoLB.fog[2].server[0] droppedJobsTotal 4601
scalar FogNoLB.fog[3].dispatcher localJobs 518135
scalar FogNoLB.fog[3].dispatcher remoteJobs 0
scalar FogNoLB.fog[3].dispatcher probeQueries 0
scalar FogNoLB.fog[3].dispatcher probeAnswers 0
scalar FogNoLB.fog[3].dispatcher droppedJobsSLA 0
scalar FogNoLB.fog[3].dispatcher jobs_class_1 518135
scalar FogNoLB.fog[3].dispatcher localJobs_class_1 518135
scalar FogNoLB.fog[3].server[0] rho 0.79918015003204
scalar FogNoLB.fog[3].server[0] congestionRatio 0
scalar FogNoLB.fog[3].server[0] totalJobs 518135
scalar FogNoLB.fog[3].server[0] droppedJobsQueue 359
scalar FogNoLB.fog[3].server[0] droppedJobsTimout 4115
scalar FogNoLB.fog[3].server[0] droppedJobsSLA 0
scalar FogNoLB.fog[3].server[0] droppedJobsTotal 4474
scalar FogNoLB.fog[4].dispatcher localJobs 517747
scalar FogNoLB.fog[4].dispatcher remoteJobs 0
scalar FogNoLB.fog[4].dispatcher probeQueries 0
scalar FogNoLB.fog[4].dispatcher probeAnswers 0
scalar FogNoLB.fog[4].dispatcher droppedJobsSLA 0
scalar FogNoLB.fog[4].dispatcher jobs_class_1 517747
scalar FogNoLB.fog[4].dispatcher localJobs_class_1 517747
scalar FogNoLB.fog[4].server[0] rho 0.79874634742737
scalar FogNoLB.fog[4].server[0] congestionRatio 0
scalar FogNoLB.fog[4].server[0] totalJobs 517747
scalar FogNoLB.fog[4].server[0] droppedJobsQueue 368
scalar FogNoLB.fog[4].server[0] droppedJobsTimout 4035
scalar FogNoLB.fog[4].server[0] droppedJobsSLA 0
scalar FogNoLB.fog[4].server[0] droppedJobsTotal 4403
scalar FogNoLB.fog[5].dispatcher localJobs 517426
scalar FogNoLB.fog[5].dispatcher remoteJobs 0
scalar FogNoLB.fog[5].dispatcher probeQueries 0
scalar FogNoLB.fog[5].dispatcher probeAnswers 0
scalar FogNoLB.fog[5].dispatcher droppedJobsSLA 0
scalar FogNoLB.fog[5].dispatcher jobs_class_1 517426
scalar FogNoLB.fog[5].dispatcher localJobs_class_1 517426
scalar FogNoLB.fog[5].server[0] rho 0.79825049638748
scalar FogNoLB.fog[5].server[0] congestionRatio 0
scalar FogNoLB.fog[5].server[0] totalJobs 517426
scalar FogNoLB.fog[5].server[0] droppedJobsQueue 345
scalar FogNoLB.fog[5].server[0] droppedJobsTimout 4011
scalar FogNoLB.fog[5].server[0] droppedJobsSLA 0
scalar FogNoLB.fog[5].server[0] droppedJobsTotal 4356
scalar FogNoLB.fog[6].dispatcher localJobs 516691
scalar FogNoLB.fog[6].dispatcher remoteJobs 0
scalar FogNoLB.fog[6].dispatcher probeQueries 0
scalar FogNoLB.fog[6].dispatcher probeAnswers 0
scalar FogNoLB.fog[6].dispatcher droppedJobsSLA 0
scalar FogNoLB.fog[6].dispatcher jobs_class_1 516691
scalar FogNoLB.fog[6].dispatcher localJobs_class_1 516691
scalar FogNoLB.fog[6].server[0] rho 0.79680103063583
scalar FogNoLB.fog[6].server[0] congestionRatio 0
scalar FogNoLB.fog[6].server[0] totalJobs 516691
scalar FogNoLB.fog[6].server[0] droppedJobsQueue 423
scalar FogNoLB.fog[6].server[0] droppedJobsTimout 4440
scalar FogNoLB.fog[6].server[0] droppedJobsSLA 0
scalar FogNoLB.fog[6].server[0] droppedJobsTotal 4863
scalar FogNoLB.fog[7].dispatcher localJobs 516542
scalar FogNoLB.fog[7].dispatcher remoteJobs 0
scalar FogNoLB.fog[7].dispatcher probeQueries 0
scalar FogNoLB.fog[7].dispatcher probeAnswers 0
scalar FogNoLB.fog[7].dispatcher droppedJobsSLA 0
scalar FogNoLB.fog[7].dispatcher jobs_class_1 516542
scalar FogNoLB.fog[7].dispatcher localJobs_class_1 516542
scalar FogNoLB.fog[7].server[0] rho 0.79694241285324
scalar FogNoLB.fog[7].server[0] congestionRatio 0
scalar FogNoLB.fog[7].server[0] totalJobs 516542
scalar FogNoLB.fog[7].server[0] droppedJobsQueue 342
scalar FogNoLB.fog[7].server[0] droppedJobsTimout 3862
scalar FogNoLB.fog[7].server[0] droppedJobsSLA 0
scalar FogNoLB.fog[7].server[0] droppedJobsTotal 4204
scalar FogNoLB.fog[8].dispatcher localJobs 517405
scalar FogNoLB.fog[8].dispatcher remoteJobs 0
scalar FogNoLB.fog[8].dispatcher probeQueries 0
scalar FogNoLB.fog[8].dispatcher probeAnswers 0
scalar FogNoLB.fog[8].dispatcher droppedJobsSLA 0
scalar FogNoLB.fog[8].dispatcher jobs_class_1 517405
scalar FogNoLB.fog[8].dispatcher localJobs_class_1 517405
scalar FogNoLB.fog[8].server[0] rho 0.79823756217957
scalar FogNoLB.fog[8].server[0] congestionRatio 0
scalar FogNoLB.fog[8].server[0] totalJobs 517405
scalar FogNoLB.fog[8].server[0] droppedJobsQueue 360
scalar FogNoLB.fog[8].server[0] droppedJobsTimout 3898
scalar FogNoLB.fog[8].server[0] droppedJobsSLA 0
scalar FogNoLB.fog[8].server[0] droppedJobsTotal 4258
scalar FogNoLB.fog[9].dispatcher localJobs 517032
scalar FogNoLB.fog[9].dispatcher remoteJobs 0
scalar FogNoLB.fog[9].dispatcher probeQueries 0
scalar FogNoLB.fog[9].dispatcher probeAnswers 0
scalar FogNoLB.fog[9].dispatcher droppedJobsSLA 0
scalar FogNoLB.fog[9].dispatcher jobs_class_1 517032
scalar FogNoLB.fog[9].dispatcher localJobs_class_1 517032
scalar FogNoLB.fog[9].server[0] rho 0.79740655422211
scalar FogNoLB.fog[9].server[0] congestionRatio 0
scalar FogNoLB.fog[9].server[0] totalJobs 517032
scalar FogNoLB.fog[9].server[0] droppedJobsQueue 430
scalar FogNoLB.fog[9].server[0] droppedJobsTimout 4295
scalar FogNoLB.fog[9].server[0] droppedJobsSLA 0
scalar FogNoLB.fog[9].server[0] droppedJobsTotal 4725
scalar FogNoLB.fog[10].dispatcher localJobs 517747
scalar FogNoLB.fog[10].dispatcher remoteJobs 0
scalar FogNoLB.fog[10].dispatcher probeQueries 0
scalar FogNoLB.fog[10].dispatcher probeAnswers 0
scalar FogNoLB.fog[10].dispatcher droppedJobsSLA 0
scalar FogNoLB.fog[10].dispatcher jobs_class_1 517747
scalar FogNoLB.fog[10].dispatcher localJobs_class_1 517747
scalar FogNoLB.fog[10].server[0] rho 0.7987208366394
scalar FogNoLB.fog[10].server[0] congestionRatio 0
scalar FogNoLB.fog[10].server[0] totalJobs 517747
scalar FogNoLB.fog[10].server[0] droppedJobsQueue 346
scalar FogNoLB.fog[10].server[0] droppedJobsTimout 4001
scalar FogNoLB.fog[10].server[0] droppedJobsSLA 0
scalar FogNoLB.fog[10].server[0] droppedJobsTotal 4347
scalar FogNoLB.fog[11].dispatcher localJobs 517679
scalar FogNoLB.fog[11].dispatcher remoteJobs 0
scalar FogNoLB.fog[11].dispatcher probeQueries 0
scalar FogNoLB.fog[11].dispatcher probeAnswers 0
scalar FogNoLB.fog[11].dispatcher droppedJobsSLA 0
scalar FogNoLB.fog[11].dispatcher jobs_class_1 517679
scalar FogNoLB.fog[11].dispatcher localJobs_class_1 517679
scalar FogNoLB.fog[11].server[0] rho 0.79840248823166
scalar FogNoLB.fog[11].server[0] congestionRatio 0
scalar FogNoLB.fog[11].server[0] totalJobs 517679
scalar FogNoLB.fog[11].server[0] droppedJobsQueue 389
scalar FogNoLB.fog[11].server[0] droppedJobsTimout 4550
scalar FogNoLB.fog[11].server[0] droppedJobsSLA 0
scalar FogNoLB.fog[11].server[0] droppedJobsTotal 4939
scalar FogNoLB.fog[12].dispatcher localJobs 516665
scalar FogNoLB.fog[12].dispatcher remoteJobs 0
scalar FogNoLB.fog[12].dispatcher probeQueries 0
scalar FogNoLB.fog[12].dispatcher probeAnswers 0
scalar FogNoLB.fog[12].dispatcher droppedJobsSLA 0
scalar FogNoLB.fog[12].dispatcher jobs_class_1 516665
scalar FogNoLB.fog[12].dispatcher localJobs_class_1 516665
scalar FogNoLB.fog[12].server[0] rho 0.79694855213165
scalar FogNoLB.fog[12].server[0] congestionRatio 0
scalar FogNoLB.fog[12].server[0] totalJobs 516665
scalar FogNoLB.fog[12].server[0] droppedJobsQueue 394
scalar FogNoLB.fog[12].server[0] droppedJobsTimout 4210
scalar FogNoLB.fog[12].server[0] droppedJobsSLA 0
scalar FogNoLB.fog[12].server[0] droppedJobsTotal 4604
scalar FogNoLB.fog[13].dispatcher localJobs 516801
scalar FogNoLB.fog[13].dispatcher remoteJobs 0
scalar FogNoLB.fog[13].dispatcher probeQueries 0
scalar FogNoLB.fog[13].dispatcher probeAnswers 0
scalar FogNoLB.fog[13].dispatcher droppedJobsSLA 0
scalar FogNoLB.fog[13].dispatcher jobs_class_1 516801
scalar FogNoLB.fog[13].dispatcher localJobs_class_1 516801
scalar FogNoLB.fog[13].server[0] rho 0.79716509580612
scalar FogNoLB.fog[13].server[0] congestionRatio 0
scalar FogNoLB.fog[13].server[0] totalJobs 516801
scalar FogNoLB.fog[13].server[0] droppedJobsQueue 371
scalar FogNoLB.fog[13].server[0] droppedJobsTimout 4133
scalar FogNoLB.fog[13].server[0] droppedJobsSLA 0
scalar FogNoLB.fog[13].server[0] droppedJobsTotal 4504
scalar FogNoLB.fog[14].dispatcher localJobs 517747
scalar FogNoLB.fog[14].dispatcher remoteJobs 0
scalar FogNoLB.fog[14].dispatcher probeQueries 0
scalar FogNoLB.fog[14].dispatcher probeAnswers 0
scalar FogNoLB.fog[14].dispatcher droppedJobsSLA 0
scalar FogNoLB.fog[14].dispatcher jobs_class_1 517747
scalar FogNoLB.fog[14].dispatcher localJobs_class_1 517747
scalar FogNoLB.fog[14].server[0] rho 0.79856896400452
scalar FogNoLB.fog[14].server[0] congestionRatio 0
scalar FogNoLB.fog[14].server[0] totalJobs 517747
scalar FogNoLB.fog[14].server[0] droppedJobsQueue 400
scalar FogNoLB.fog[14].server[0] droppedJobsTimout 4305
scalar FogNoLB.fog[14].server[0] droppedJobsSLA 0
scalar FogNoLB.fog[14].server[0] droppedJobsTotal 4705
scalar FogNoLB.fog[15].dispatcher localJobs 516988
scalar FogNoLB.fog[15].dispatcher remoteJobs 0
scalar FogNoLB.fog[15].dispatcher probeQueries 0
scalar FogNoLB.fog[15].dispatcher probeAnswers 0
scalar FogNoLB.fog[15].dispatcher droppedJobsSLA 0
scalar FogNoLB.fog[15].dispatcher jobs_class_1 516988
scalar FogNoLB.fog[15].dispatcher localJobs_class_1 516988
scalar FogNoLB.fog[15].server[0] rho 0.79740577936172
scalar FogNoLB.fog[15].server[0] congestionRatio 0
scalar FogNoLB.fog[15].server[0] totalJobs 516988
scalar FogNoLB.fog[15].server[0] droppedJobsQueue 409
scalar FogNoLB.fog[15].server[0] droppedJobsTimout 4085
scalar FogNoLB.fog[15].server[0] droppedJobsSLA 0
scalar FogNoLB.fog[15].server[0] droppedJobsTotal 4494
scalar FogNoLB.fog[16].dispatcher localJobs 516912
scalar FogNoLB.fog[16].dispatcher remoteJobs 0
scalar FogNoLB.fog[16].dispatcher probeQueries 0
scalar FogNoLB.fog[16].dispatcher probeAnswers 0
scalar FogNoLB.fog[16].dispatcher droppedJobsSLA 0
scalar FogNoLB.fog[16].dispatcher jobs_class_1 516912
scalar FogNoLB.fog[16].dispatcher localJobs_class_1 516912
scalar FogNoLB.fog[16].server[0] rho 0.79750347137451
scalar FogNoLB.fog[16].server[0] congestionRatio 0
scalar FogNoLB.fog[16].server[0] totalJobs 516912
scalar FogNoLB.fog[16].server[0] droppedJobsQueue 366
scalar FogNoLB.fog[16].server[0] droppedJobsTimout 3842
scalar FogNoLB.fog[16].server[0] droppedJobsSLA 0
scalar FogNoLB.fog[16].server[0] droppedJobsTotal 4208
scalar FogNoLB.fog[17].dispatcher localJobs 517757
scalar FogNoLB.fog[17].dispatcher remoteJobs 0
scalar FogNoLB.fog[17].dispatcher probeQueries 0
scalar FogNoLB.fog[17].dispatcher probeAnswers 0
scalar FogNoLB.fog[17].dispatcher droppedJobsSLA 0
scalar FogNoLB.fog[17].dispatcher jobs_class_1 517757
scalar FogNoLB.fog[17].dispatcher localJobs_class_1 517757
scalar FogNoLB.fog[17].server[0] rho 0.79872876405716
scalar FogNoLB.fog[17].server[0] congestionRatio 0
scalar FogNoLB.fog[17].server[0] totalJobs 517757
scalar FogNoLB.fog[17].server[0] droppedJobsQueue 343
scalar FogNoLB.fog[17].server[0] droppedJobsTimout 4155
scalar FogNoLB.fog[17].server[0] droppedJobsSLA 0
scalar FogNoLB.fog[17].server[0] droppedJobsTotal 4498
scalar FogNoLB.fog[18].dispatcher localJobs 517996
scalar FogNoLB.fog[18].dispatcher remoteJobs 0
scalar FogNoLB.fog[18].dispatcher probeQueries 0
scalar FogNoLB.fog[18].dispatcher probeAnswers 0
scalar FogNoLB.fog[18].dispatcher droppedJobsSLA 0
scalar FogNoLB.fog[18].dispatcher jobs_class_1 517996
scalar FogNoLB.fog[18].dispatcher localJobs_class_1 517996
scalar FogNoLB.fog[18].server[0] rho 0.79894459247589
scalar FogNoLB.fog[18].server[0] congestionRatio 0
scalar FogNoLB.fog[18].server[0] totalJobs 517996
scalar FogNoLB.fog[18].server[0] droppedJobsQueue 383
scalar FogNoLB.fog[18].server[0] droppedJobsTimout 4336
scalar FogNoLB.fog[18].server[0] droppedJobsSLA 0
scalar FogNoLB.fog[18].server[0] droppedJobsTotal 4719
scalar FogNoLB.fog[19].dispatcher localJobs 517104
scalar FogNoLB.fog[19].dispatcher remoteJobs 0
scalar FogNoLB.fog[19].dispatcher probeQueries 0
scalar FogNoLB.fog[19].dispatcher probeAnswers 0
scalar FogNoLB.fog[19].dispatcher droppedJobsSLA 0
scalar FogNoLB.fog[19].dispatcher jobs_class_1 517104
scalar FogNoLB.fog[19].dispatcher localJobs_class_1 517104
scalar FogNoLB.fog[19].server[0] rho 0.79740917682648
scalar FogNoLB.fog[19].server[0] congestionRatio 0
scalar FogNoLB.fog[19].server[0] totalJobs 517104
scalar FogNoLB.fog[19].server[0] droppedJobsQueue 446
scalar FogNoLB.fog[19].server[0] droppedJobsTimout 4475
scalar FogNoLB.fog[19].server[0] droppedJobsSLA 0
scalar FogNoLB.fog[19].server[0] droppedJobsTotal 4921
scalar FogNoLB.fog[20].dispatcher localJobs 517434
scalar FogNoLB.fog[20].dispatcher remoteJobs 0
scalar FogNoLB.fog[20].dispatcher probeQueries 0
scalar FogNoLB.fog[20].dispatcher probeAnswers 0
scalar FogNoLB.fog[20].dispatcher droppedJobsSLA 0
scalar FogNoLB.fog[20].dispatcher jobs_class_1 517434
scalar FogNoLB.fog[20].dispatcher localJobs_class_1 517434
scalar FogNoLB.fog[20].server[0] rho 0.7981134057045
scalar FogNoLB.fog[20].server[0] congestionRatio 0
scalar FogNoLB.fog[20].server[0] totalJobs 517434
scalar FogNoLB.fog[20].server[0] droppedJobsQueue 376
scalar FogNoLB.fog[20].server[0] droppedJobsTimout 4257
scalar FogNoLB.fog[20].server[0] droppedJobsSLA 0
scalar FogNoLB.fog[20].server[0] droppedJobsTotal 4633
scalar FogNoLB.fog[21].dispatcher localJobs 517193
scalar FogNoLB.fog[21].dispatcher remoteJobs 0
scalar FogNoLB.fog[21].dispatcher probeQueries 0
scalar FogNoLB.fog[21].dispatcher probeAnswers 0
scalar FogNoLB.fog[21].dispatcher droppedJobsSLA 0
scalar FogNoLB.fog[21].dispatcher jobs_class_1 517193
scalar FogNoLB.fog[21].dispatcher localJobs_class_1 517193
scalar FogNoLB.fog[21].server[0] rho 0.79783982038498
scalar FogNoLB.fog[21].server[0] congestionRatio 0
scalar FogNoLB.fog[21].server[0] totalJobs 517193
scalar FogNoLB.fog[21].server[0] droppedJobsQueue 355
scalar FogNoLB.fog[21].server[0] droppedJobsTimout 3993
scalar FogNoLB.fog[21].server[0] droppedJobsSLA 0
scalar FogNoLB.fog[21].server[0] droppedJobsTotal 4348
scalar FogNoLB.fog[22].dispatcher localJobs 518564
scalar FogNoLB.fog[22].dispatcher remoteJobs 0
scalar FogNoLB.fog[22].dispatcher probeQueries 0
scalar FogNoLB.fog[22].dispatcher probeAnswers 0
scalar FogNoLB.fog[22].dispatcher droppedJobsSLA 0
scalar FogNoLB.fog[22].dispatcher jobs_class_1 518564
scalar FogNoLB.fog[22].dispatcher localJobs_class_1 518564
scalar FogNoLB.fog[22].server[0] rho 0.79975235462189
scalar FogNoLB.fog[22].server[0] congestionRatio 0
scalar FogNoLB.fog[22].server[0] totalJobs 518564
scalar FogNoLB.fog[22].server[0] droppedJobsQueue 412
scalar FogNoLB.fog[22].server[0] droppedJobsTimout 4386
scalar FogNoLB.fog[22].server[0] droppedJobsSLA 0
scalar FogNoLB.fog[22].server[0] droppedJobsTotal 4798
scalar FogNoLB.fog[23].dispatcher localJobs 516920
scalar FogNoLB.fog[23].dispatcher remoteJobs 0
scalar FogNoLB.fog[23].dispatcher probeQueries 0
scalar FogNoLB.fog[23].dispatcher probeAnswers 0
scalar FogNoLB.fog[23].dispatcher droppedJobsSLA 0
scalar FogNoLB.fog[23].dispatcher jobs_class_1 516920
scalar FogNoLB.fog[23].dispatcher localJobs_class_1 516920
scalar FogNoLB.fog[23].server[0] rho 0.79740333557129
scalar FogNoLB.fog[23].server[0] congestionRatio 0
scalar FogNoLB.fog[23].server[0] totalJobs 516920
scalar FogNoLB.fog[23].server[0] droppedJobsQueue 355
scalar FogNoLB.fog[23].server[0] droppedJobsTimout 4066
scalar FogNoLB.fog[23].server[0] droppedJobsSLA 0
scalar FogNoLB.fog[23].server[0] droppedJobsTotal 4421
scalar FogNoLB.fog[24].dispatcher localJobs 517569
scalar FogNoLB.fog[24].dispatcher remoteJobs 0
scalar FogNoLB.fog[24].dispatcher probeQueries 0
scalar FogNoLB.fog[24].dispatcher probeAnswers 0
scalar FogNoLB.fog[24].dispatcher droppedJobsSLA 0
scalar FogNoLB.fog[24].dispatcher jobs_class_1 517569
scalar FogNoLB.fog[24].dispatcher localJobs_class_1 517569
scalar FogNoLB.fog[24].server[0] rho 0.79833883047104
scalar FogNoLB.fog[24].server[0] congestionRatio 0
scalar FogNoLB.fog[24].server[0] totalJobs 517569
scalar FogNoLB.fog[24].server[0] droppedJobsQueue 370
scalar FogNoLB.fog[24].server[0] droppedJobsTimout 4233
scalar FogNoLB.fog[24].server[0] droppedJobsSLA 0
scalar FogNoLB.fog[24].server[0] droppedJobsTotal 4603
scalar FogNoLB.fog[25].dispatcher localJobs 517039
scalar FogNoLB.fog[25].dispatcher remoteJobs 0
scalar FogNoLB.fog[25].dispatcher probeQueries 0
scalar FogNoLB.fog[25].dispatcher probeAnswers 0
scalar FogNoLB.fog[25].dispatcher droppedJobsSLA 0
scalar FogNoLB.fog[25].dispatcher jobs_class_1 517039
scalar FogNoLB.fog[25].dispatcher localJobs_class_1 517039
scalar FogNoLB.fog[25].server[0] rho 0.79754662513733
scalar FogNoLB.fog[25].server[0] congestionRatio 0
scalar FogNoLB.fog[25].server[0] totalJobs 517039
scalar FogNoLB.fog[25].server[0] droppedJobsQueue 375
scalar FogNoLB.fog[25].server[0] droppedJobsTimout 4090
scalar FogNoLB.fog[25].server[0] droppedJobsSLA 0
scalar FogNoLB.fog[25].server[0] droppedJobsTotal 4465
scalar FogNoLB.fog[26].dispatcher localJobs 518477
scalar FogNoLB.fog[26].dispatcher remoteJobs 0
scalar FogNoLB.fog[26].dispatcher probeQueries 0
scalar FogNoLB.fog[26].dispatcher probeAnswers 0
scalar FogNoLB.fog[26].dispatcher droppedJobsSLA 0
scalar FogNoLB.fog[26].dispatcher jobs_class_1 518477
scalar FogNoLB.fog[26].dispatcher localJobs_class_1 518477
scalar FogNoLB.fog[26].server[0] rho 0.79950040578842
scalar FogNoLB.fog[26].server[0] congestionRatio 0
scalar FogNoLB.fog[26].server[0] totalJobs 518477
scalar FogNoLB.fog[26].server[0] droppedJobsQueue 463
scalar FogNoLB.fog[26].server[0] droppedJobsTimout 4584
scalar FogNoLB.fog[26].server[0] droppedJobsSLA 0
scalar FogNoLB.fog[26].server[0] droppedJobsTotal 5047
scalar FogNoLB.fog[27].dispatcher localJobs 517082
scalar FogNoLB.fog[27].dispatcher remoteJobs 0
scalar FogNoLB.fog[27].dispatcher probeQueries 0
scalar FogNoLB.fog[27].dispatcher probeAnswers 0
scalar FogNoLB.fog[27].dispatcher droppedJobsSLA 0
scalar FogNoLB.fog[27].dispatcher jobs_class_1 517082
scalar FogNoLB.fog[27].dispatcher localJobs_class_1 517082
scalar FogNoLB.fog[27].server[0] rho 0.79761934280396
scalar FogNoLB.fog[27].server[0] congestionRatio 0
scalar FogNoLB.fog[27].server[0] totalJobs 517082
scalar FogNoLB.fog[27].server[0] droppedJobsQueue 354
scalar FogNoLB.fog[27].server[0] droppedJobsTimout 4237
scalar FogNoLB.fog[27].server[0] droppedJobsSLA 0
scalar FogNoLB.fog[27].server[0] droppedJobsTotal 4591
scalar FogNoLB.fog[28].dispatcher localJobs 519038
scalar FogNoLB.fog[28].dispatcher remoteJobs 0
scalar FogNoLB.fog[28].dispatcher probeQueries 0
scalar FogNoLB.fog[28].dispatcher probeAnswers 0
scalar FogNoLB.fog[28].dispatcher droppedJobsSLA 0
scalar FogNoLB.fog[28].dispatcher jobs_class_1 519038
scalar FogNoLB.fog[28].dispatcher localJobs_class_1 519038
scalar FogNoLB.fog[28].server[0] rho 0.80042916536331
scalar FogNoLB.fog[28].server[0] congestionRatio 0
scalar FogNoLB.fog[28].server[0] totalJobs 519038
scalar FogNoLB.fog[28].server[0] droppedJobsQueue 409
scalar FogNoLB.fog[28].server[0] droppedJobsTimout 4576
scalar FogNoLB.fog[28].server[0] droppedJobsSLA 0
scalar FogNoLB.fog[28].server[0] droppedJobsTotal 4985
scalar FogNoLB.fog[29].dispatcher localJobs 517344
scalar FogNoLB.fog[29].dispatcher remoteJobs 0
scalar FogNoLB.fog[29].dispatcher probeQueries 0
scalar FogNoLB.fog[29].dispatcher probeAnswers 0
scalar FogNoLB.fog[29].dispatcher droppedJobsSLA 0
scalar FogNoLB.fog[29].dispatcher jobs_class_1 517344
scalar FogNoLB.fog[29].dispatcher localJobs_class_1 517344
scalar FogNoLB.fog[29].server[0] rho 0.79828989505768
scalar FogNoLB.fog[29].server[0] congestionRatio 0
scalar FogNoLB.fog[29].server[0] totalJobs 517344
scalar FogNoLB.fog[29].server[0] droppedJobsQueue 309
scalar FogNoLB.fog[29].server[0] droppedJobsTimout 3715
scalar FogNoLB.fog[29].server[0] droppedJobsSLA 0
scalar FogNoLB.fog[29].server[0] droppedJobsTotal 4024
scalar FogNoLB.fog[30].dispatcher localJobs 517560
scalar FogNoLB.fog[30].dispatcher remoteJobs 0
scalar FogNoLB.fog[30].dispatcher probeQueries 0
scalar FogNoLB.fog[30].dispatcher probeAnswers 0
scalar FogNoLB.fog[30].dispatcher droppedJobsSLA 0
scalar FogNoLB.fog[30].dispatcher jobs_class_1 517560
scalar FogNoLB.fog[30].dispatcher localJobs_class_1 517560
scalar FogNoLB.fog[30].server[0] rho 0.79827350378036
scalar FogNoLB.fog[30].server[0] congestionRatio 0
scalar FogNoLB.fog[30].server[0] totalJobs 517560
scalar FogNoLB.fog[30].server[0] droppedJobsQueue 377
scalar FogNoLB.fog[30].server[0] droppedJobsTimout 4282
scalar FogNoLB.fog[30].server[0] droppedJobsSLA 0
scalar FogNoLB.fog[30].server[0] droppedJobsTotal 4659
scalar FogNoLB.fog[31].dispatcher localJobs 517751
scalar FogNoLB.fog[31].dispatcher remoteJobs 0
scalar FogNoLB.fog[31].dispatcher probeQueries 0
scalar FogNoLB.fog[31].dispatcher probeAnswers 0
scalar FogNoLB.fog[31].dispatcher droppedJobsSLA 0
scalar FogNoLB.fog[31].dispatcher jobs_class_1 517751
scalar FogNoLB.fog[31].dispatcher localJobs_class_1 517751
scalar FogNoLB.fog[31].server[0] rho 0.79859483242035
scalar FogNoLB.fog[31].server[0] congestionRatio 0
scalar FogNoLB.fog[31].server[0] totalJobs 517751
scalar FogNoLB.fog[31].server[0] droppedJobsQueue 386
scalar FogNoLB.fog[31].server[0] droppedJobsTimout 4363
scalar FogNoLB.fog[31].server[0] droppedJobsSLA 0
scalar FogNoLB.fog[31].server[0] droppedJobsTotal 4749
scalar FogNoLB.fog[32].dispatcher localJobs 516775
scalar FogNoLB.fog[32].dispatcher remoteJobs 0
scalar FogNoLB.fog[32].dispatcher probeQueries 0
scalar FogNoLB.fog[32].dispatcher probeAnswers 0
scalar FogNoLB.fog[32].dispatcher droppedJobsSLA 0
scalar FogNoLB.fog[32].dispatcher jobs_class_1 516775
scalar FogNoLB.fog[32].dispatcher localJobs_class_1 516775
scalar FogNoLB.fog[32].server[0] rho 0.79711043834686
scalar FogNoLB.fog[32].server[0] congestionRatio 0
scalar FogNoLB.fog[32].server[0] totalJobs 516775
scalar FogNoLB.fog[32].server[0] droppedJobsQueue 398
scalar FogNoLB.fog[32].server[0] droppedJobsTimout 4251
scalar FogNoLB.fog[32].server[0] droppedJobsSLA 0
scalar FogNoLB.fog[32].server[0] droppedJobsTotal 4649
scalar FogNoLB.fog[33].dispatcher localJobs 516765
scalar FogNoLB.fog[33].dispatcher remoteJobs 0
scalar FogNoLB.fog[33].dispatcher probeQueries 0
scalar FogNoLB.fog[33].dispatcher probeAnswers 0
scalar FogNoLB.fog[33].dispatcher droppedJobsSLA 0
scalar FogNoLB.fog[33].dispatcher jobs_class_1 516765
scalar FogNoLB.fog[33].dispatcher localJobs_class_1 516765
scalar FogNoLB.fog[33].server[0] rho 0.79732257127762
scalar FogNoLB.fog[33].server[0] congestionRatio 0
scalar FogNoLB.fog[33].server[0] totalJobs 516765
scalar FogNoLB.fog[33].server[0] droppedJobsQueue 336
scalar FogNoLB.fog[33].server[0] droppedJobsTimout 3794
scalar FogNoLB.fog[33].server[0] droppedJobsSLA 0
scalar FogNoLB.fog[33].server[0] droppedJobsTotal 4130
scalar FogNoLB.fog[34].dispatcher localJobs 517880
scalar FogNoLB.fog[34].dispatcher remoteJobs 0
scalar FogNoLB.fog[34].dispatcher probeQueries 0
scalar FogNoLB.fog[34].dispatcher probeAnswers 0
scalar FogNoLB.fog[34].dispatcher droppedJobsSLA 0
scalar FogNoLB.fog[34].dispatcher jobs_class_1 517880
scalar FogNoLB.fog[34].dispatcher localJobs_class_1 517880
scalar FogNoLB.fog[34].server[0] rho 0.7988333106041
scalar FogNoLB.fog[34].server[0] congestionRatio 0
scalar FogNoLB.fog[34].server[0] totalJobs 517880
scalar FogNoLB.fog[34].server[0] droppedJobsQueue 357
scalar FogNoLB.fog[34].server[0] droppedJobsTimout 4286
scalar FogNoLB.fog[34].server[0] droppedJobsSLA 0
scalar FogNoLB.fog[34].server[0] droppedJobsTotal 4643
scalar FogNoLB.fog[35].dispatcher localJobs 516467
scalar FogNoLB.fog[35].dispatcher remoteJobs 0
scalar FogNoLB.fog[35].dispatcher probeQueries 0
scalar FogNoLB.fog[35].dispatcher probeAnswers 0
scalar FogNoLB.fog[35].dispatcher droppedJobsSLA 0
scalar FogNoLB.fog[35].dispatcher jobs_class_1 516467
scalar FogNoLB.fog[35].dispatcher localJobs_class_1 516467
scalar FogNoLB.fog[35].server[0] rho 0.79665303230286
scalar FogNoLB.fog[35].server[0] congestionRatio 0
scalar FogNoLB.fog[35].server[0] totalJobs 516467
scalar FogNoLB.fog[35].server[0] droppedJobsQueue 408
scalar FogNoLB.fog[35].server[0] droppedJobsTimout 4198
scalar FogNoLB.fog[35].server[0] droppedJobsSLA 0
scalar FogNoLB.fog[35].server[0] droppedJobsTotal 4606
scalar FogNoLB.fog[36].dispatcher localJobs 515809
scalar FogNoLB.fog[36].dispatcher remoteJobs 0
scalar FogNoLB.fog[36].dispatcher probeQueries 0
scalar FogNoLB.fog[36].dispatcher probeAnswers 0
scalar FogNoLB.fog[36].dispatcher droppedJobsSLA 0
scalar FogNoLB.fog[36].dispatcher jobs_class_1 515809
scalar FogNoLB.fog[36].dispatcher localJobs_class_1 515809
scalar FogNoLB.fog[36].server[0] rho 0.79578685760498
scalar FogNoLB.fog[36].server[0] congestionRatio 0
scalar FogNoLB.fog[36].server[0] totalJobs 515809
scalar FogNoLB.fog[36].server[0] droppedJobsQueue 308
scalar FogNoLB.fog[36].server[0] droppedJobsTimout 4076
scalar FogNoLB.fog[36].server[0] droppedJobsSLA 0
scalar FogNoLB.fog[36].server[0] droppedJobsTotal 4384
scalar FogNoLB.fog[37].dispatcher localJobs 515602
scalar FogNoLB.fog[37].dispatcher remoteJobs 0
scalar FogNoLB.fog[37].dispatcher probeQueries 0
scalar FogNoLB.fog[37].dispatcher probeAnswers 0
scalar FogNoLB.fog[37].dispatcher droppedJobsSLA 0
scalar FogNoLB.fog[37].dispatcher jobs_class_1 515602
scalar FogNoLB.fog[37].dispatcher localJobs_class_1 515602
scalar FogNoLB.fog[37].server[0] rho 0.7954877614975
scalar FogNoLB.fog[37].server[0] congestionRatio 0
scalar FogNoLB.fog[37].server[0] totalJobs 515602
scalar FogNoLB.fog[37].server[0] droppedJobsQueue 350
scalar FogNoLB.fog[37].server[0] droppedJobsTimout 3872
scalar FogNoLB.fog[37].server[0] droppedJobsSLA 0
scalar FogNoLB.fog[37].server[0] droppedJobsTotal 4222
scalar FogNoLB.fog[38].dispatcher localJobs 516403
scalar FogNoLB.fog[38].dispatcher remoteJobs 0
scalar FogNoLB.fog[38].dispatcher probeQueries 0
scalar FogNoLB.fog[38].dispatcher probeAnswers 0
scalar FogNoLB.fog[38].dispatcher droppedJobsSLA 0
scalar FogNoLB.fog[38].dispatcher jobs_class_1 516403
scalar FogNoLB.fog[38].dispatcher localJobs_class_1 516403
scalar FogNoLB.fog[38].server[0] rho 0.79661256074905
scalar FogNoLB.fog[38].server[0] congestionRatio 0
scalar FogNoLB.fog[38].server[0] totalJobs 516403
scalar FogNoLB.fog[38].server[0] droppedJobsQueue 397
scalar FogNoLB.fog[38].server[0] droppedJobsTimout 3859
scalar FogNoLB.fog[38].server[0] droppedJobsSLA 0
scalar FogNoLB.fog[38].server[0] droppedJobsTotal 4256
scalar FogNoLB.fog[39].dispatcher localJobs 518199
scalar FogNoLB.fog[39].dispatcher remoteJobs 0
scalar FogNoLB.fog[39].dispatcher probeQueries 0
scalar FogNoLB.fog[39].dispatcher probeAnswers 0
scalar FogNoLB.fog[39].dispatcher droppedJobsSLA 0
scalar FogNoLB.fog[39].dispatcher jobs_class_1 518199
scalar FogNoLB.fog[39].dispatcher localJobs_class_1 518199
scalar FogNoLB.fog[39].server[0] rho 0.7994042634964
scalar FogNoLB.fog[39].server[0] congestionRatio 0
scalar FogNoLB.fog[39].server[0] totalJobs 518199
scalar FogNoLB.fog[39].server[0] droppedJobsQueue 363
scalar FogNoLB.fog[39].server[0] droppedJobsTimout 4081
scalar FogNoLB.fog[39].server[0] droppedJobsSLA 0
scalar FogNoLB.fog[39].server[0] droppedJobsTotal 4444
scalar FogNoLB.fog[40].dispatcher localJobs 517731
scalar FogNoLB.fog[40].dispatcher remoteJobs 0
scalar FogNoLB.fog[40].dispatcher probeQueries 0
scalar FogNoLB.fog[40].dispatcher probeAnswers 0
scalar FogNoLB.fog[40].dispatcher droppedJobsSLA 0
scalar FogNoLB.fog[40].dispatcher jobs_class_1 517731
scalar FogNoLB.fog[40].dispatcher localJobs_class_1 517731
scalar FogNoLB.fog[40].server[0] rho 0.79863220453262
scalar FogNoLB.fog[40].server[0] congestionRatio 0
scalar FogNoLB.fog[40].server[0] totalJobs 517731
scalar FogNoLB.fog[40].server[0] droppedJobsQueue 376
scalar FogNoLB.fog[40].server[0] droppedJobsTimout 4146
scalar FogNoLB.fog[40].server[0] droppedJobsSLA 0
scalar FogNoLB.fog[40].server[0] droppedJobsTotal 4522
scalar FogNoLB.fog[41].dispatcher localJobs 517386
scalar FogNoLB.fog[41].dispatcher remoteJobs 0
scalar FogNoLB.fog[41].dispatcher probeQueries 0
scalar FogNoLB.fog[41].dispatcher probeAnswers 0
scalar FogNoLB.fog[41].dispatcher droppedJobsSLA 0
scalar FogNoLB.fog[41].dispatcher jobs_class_1 517386
scalar FogNoLB.fog[41].dispatcher localJobs_class_1 517386
scalar FogNoLB.fog[41].server[0] rho 0.79814958572388
scalar FogNoLB.fog[41].server[0] congestionRatio 0
scalar FogNoLB.fog[41].server[0] totalJobs 517386
scalar FogNoLB.fog[41].server[0] droppedJobsQueue 362
scalar FogNoLB.fog[41].server[0] droppedJobsTimout 4142
scalar FogNoLB.fog[41].server[0] droppedJobsSLA 0
scalar FogNoLB.fog[41].server[0] droppedJobsTotal 4504
scalar FogNoLB.fog[42].dispatcher localJobs 516661
scalar FogNoLB.fog[42].dispatcher remoteJobs 0
scalar FogNoLB.fog[42].dispatcher probeQueries 0
scalar FogNoLB.fog[42].dispatcher probeAnswers 0
scalar FogNoLB.fog[42].dispatcher droppedJobsSLA 0
scalar FogNoLB.fog[42].dispatcher jobs_class_1 516661
scalar FogNoLB.fog[42].dispatcher localJobs_class_1 516661
scalar FogNoLB.fog[42].server[0] rho 0.7971710562706
scalar FogNoLB.fog[42].server[0] congestionRatio 0
scalar FogNoLB.fog[42].server[0] totalJobs 516661
scalar FogNoLB.fog[42].server[0] droppedJobsQueue 311
scalar FogNoLB.fog[42].server[0] droppedJobsTimout 3906
scalar FogNoLB.fog[42].server[0] droppedJobsSLA 0
scalar FogNoLB.fog[42].server[0] droppedJobsTotal 4217
scalar FogNoLB.fog[43].dispatcher localJobs 516783
scalar FogNoLB.fog[43].dispatcher remoteJobs 0
scalar FogNoLB.fog[43].dispatcher probeQueries 0
scalar FogNoLB.fog[43].dispatcher probeAnswers 0
scalar FogNoLB.fog[43].dispatcher droppedJobsSLA 0
scalar FogNoLB.fog[43].dispatcher jobs_class_1 516783
scalar FogNoLB.fog[43].dispatcher localJobs_class_1 516783
scalar FogNoLB.fog[43].server[0] rho 0.79718542098999
scalar FogNoLB.fog[43].server[0] congestionRatio 0
scalar FogNoLB.fog[43].server[0] totalJobs 516783
scalar FogNoLB.fog[43].server[0] droppedJobsQueue 360
scalar FogNoLB.fog[43].server[0] droppedJobsTimout 3989
scalar FogNoLB.fog[43].server[0] droppedJobsSLA 0
scalar FogNoLB.fog[43].server[0] droppedJobsTotal 4349
scalar FogNoLB.fog[44].dispatcher localJobs 517979
scalar FogNoLB.fog[44].dispatcher remoteJobs 0
scalar FogNoLB.fog[44].dispatcher probeQueries 0
scalar FogNoLB.fog[44].dispatcher probeAnswers 0
scalar FogNoLB.fog[44].dispatcher droppedJobsSLA 0
scalar FogNoLB.fog[44].dispatcher jobs_class_1 517979
scalar FogNoLB.fog[44].dispatcher localJobs_class_1 517979
scalar FogNoLB.fog[44].server[0] rho 0.79904067516327
scalar FogNoLB.fog[44].server[0] congestionRatio 0
scalar FogNoLB.fog[44].server[0] totalJobs 517979
scalar FogNoLB.fog[44].server[0] droppedJobsQueue 363
scalar FogNoLB.fog[44].server[0] droppedJobsTimout 4059
scalar FogNoLB.fog[44].server[0] droppedJobsSLA 0
scalar FogNoLB.fog[44].server[0] droppedJobsTotal 4422
scalar FogNoLB.fog[45].dispatcher localJobs 517259
scalar FogNoLB.fog[45].dispatcher remoteJobs 0
scalar FogNoLB.fog[45].dispatcher probeQueries 0
scalar FogNoLB.fog[45].dispatcher probeAnswers 0
scalar FogNoLB.fog[45].dispatcher droppedJobsSLA 0
scalar FogNoLB.fog[45].dispatcher jobs_class_1 517259
scalar FogNoLB.fog[45].dispatcher localJobs_class_1 517259
scalar FogNoLB.fog[45].server[0] rho 0.79782795906067
scalar FogNoLB.fog[45].server[0] congestionRatio 0
scalar FogNoLB.fog[45].server[0] totalJobs 517259
scalar FogNoLB.fog[45].server[0] droppedJobsQueue 383
scalar FogNoLB.fog[45].server[0] droppedJobsTimout 4265
scalar FogNoLB.fog[45].server[0] droppedJobsSLA 0
scalar FogNoLB.fog[45].server[0] droppedJobsTotal 4648
scalar FogNoLB.fog[46].dispatcher localJobs 516996
scalar FogNoLB.fog[46].dispatcher remoteJobs 0
scalar FogNoLB.fog[46].dispatcher probeQueries 0
scalar FogNoLB.fog[46].dispatcher probeAnswers 0
scalar FogNoLB.fog[46].dispatcher droppedJobsSLA 0
scalar FogNoLB.fog[46].dispatcher jobs_class_1 516996
scalar FogNoLB.fog[46].dispatcher localJobs_class_1 516996
scalar FogNoLB.fog[46].server[0] rho 0.79768091440201
scalar FogNoLB.fog[46].server[0] congestionRatio 0
scalar FogNoLB.fog[46].server[0] totalJobs 516996
scalar FogNoLB.fog[46].server[0] droppedJobsQueue 319
scalar FogNoLB.fog[46].server[0] droppedJobsTimout 3793
scalar FogNoLB.fog[46].server[0] droppedJobsSLA 0
scalar FogNoLB.fog[46].server[0] droppedJobsTotal 4112
scalar FogNoLB.fog[47].dispatcher localJobs 517930
scalar FogNoLB.fog[47].dispatcher remoteJobs 0
scalar FogNoLB.fog[47].dispatcher probeQueries 0
scalar FogNoLB.fog[47].dispatcher probeAnswers 0
scalar FogNoLB.fog[47].dispatcher droppedJobsSLA 0
scalar FogNoLB.fog[47].dispatcher jobs_class_1 517930
scalar FogNoLB.fog[47].dispatcher localJobs_class_1 517930
scalar FogNoLB.fog[47].server[0] rho 0.79894655942917
scalar FogNoLB.fog[47].server[0] congestionRatio 0
scalar FogNoLB.fog[47].server[0] totalJobs 517930
scalar FogNoLB.fog[47].server[0] droppedJobsQueue 341
scalar FogNoLB.fog[47].server[0] droppedJobsTimout 4107
scalar FogNoLB.fog[47].server[0] droppedJobsSLA 0
scalar FogNoLB.fog[47].server[0] droppedJobsTotal 4448
scalar FogNoLB.fog[48].dispatcher localJobs 517687
scalar FogNoLB.fog[48].dispatcher remoteJobs 0
scalar FogNoLB.fog[48].dispatcher probeQueries 0
scalar FogNoLB.fog[48].dispatcher probeAnswers 0
scalar FogNoLB.fog[48].dispatcher droppedJobsSLA 0
scalar FogNoLB.fog[48].dispatcher jobs_class_1 517687
scalar FogNoLB.fog[48].dispatcher localJobs_class_1 517687
scalar FogNoLB.fog[48].server[0] rho 0.79858887195587
scalar FogNoLB.fog[48].server[0] congestionRatio 0
scalar FogNoLB.fog[48].server[0] totalJobs 517687
scalar FogNoLB.fog[48].server[0] droppedJobsQueue 365
scalar FogNoLB.fog[48].server[0] droppedJobsTimout 4038
scalar FogNoLB.fog[48].server[0] droppedJobsSLA 0
scalar FogNoLB.fog[48].server[0] droppedJobsTotal 4403
scalar FogNoLB.fog[49].dispatcher localJobs 517325
scalar FogNoLB.fog[49].dispatcher remoteJobs 0
scalar FogNoLB.fog[49].dispatcher probeQueries 0
scalar FogNoLB.fog[49].dispatcher probeAnswers 0
scalar FogNoLB.fog[49].dispatcher droppedJobsSLA 0
scalar FogNoLB.fog[49].dispatcher jobs_class_1 517325
scalar FogNoLB.fog[49].dispatcher localJobs_class_1 517325
scalar FogNoLB.fog[49].server[0] rho 0.79797846078873
scalar FogNoLB.fog[49].server[0] congestionRatio 0
scalar FogNoLB.fog[49].server[0] totalJobs 517325
scalar FogNoLB.fog[49].server[0] droppedJobsQueue 405
scalar FogNoLB.fog[49].server[0] droppedJobsTimout 4170
scalar FogNoLB.fog[49].server[0] droppedJobsSLA 0
scalar FogNoLB.fog[49].server[0] droppedJobsTotal 4575
scalar FogNoLB.fog[50].dispatcher localJobs 517893
scalar FogNoLB.fog[50].dispatcher remoteJobs 0
scalar FogNoLB.fog[50].dispatcher probeQueries 0
scalar FogNoLB.fog[50].dispatcher probeAnswers 0
scalar FogNoLB.fog[50].dispatcher droppedJobsSLA 0
scalar FogNoLB.fog[50].dispatcher jobs_class_1 517893
scalar FogNoLB.fog[50].dispatcher localJobs_class_1 517893
scalar FogNoLB.fog[50].server[0] rho 0.79863804578781
scalar FogNoLB.fog[50].server[0] congestionRatio 0
scalar FogNoLB.fog[50].server[0] totalJobs 517893
scalar FogNoLB.fog[50].server[0] droppedJobsQueue 447
scalar FogNoLB.fog[50].server[0] droppedJobsTimout 4614
scalar FogNoLB.fog[50].server[0] droppedJobsSLA 0
scalar FogNoLB.fog[50].server[0] droppedJobsTotal 5061
scalar FogNoLB.fog[51].dispatcher localJobs 516240
scalar FogNoLB.fog[51].dispatcher remoteJobs 0
scalar FogNoLB.fog[51].dispatcher probeQueries 0
scalar FogNoLB.fog[51].dispatcher probeAnswers 0
scalar FogNoLB.fog[51].dispatcher droppedJobsSLA 0
scalar FogNoLB.fog[51].dispatcher jobs_class_1 516240
scalar FogNoLB.fog[51].dispatcher localJobs_class_1 516240
scalar FogNoLB.fog[51].server[0] rho 0.79639208316803
scalar FogNoLB.fog[51].server[0] congestionRatio 0
scalar FogNoLB.fog[51].server[0] totalJobs 516240
scalar FogNoLB.fog[51].server[0] droppedJobsQueue 371
scalar FogNoLB.fog[51].server[0] droppedJobsTimout 4146
scalar FogNoLB.fog[51].server[0] droppedJobsSLA 0
scalar FogNoLB.fog[51].server[0] droppedJobsTotal 4517
scalar FogNoLB.fog[52].dispatcher localJobs 515529
scalar FogNoLB.fog[52].dispatcher remoteJobs 0
scalar FogNoLB.fog[52].dispatcher probeQueries 0
scalar FogNoLB.fog[52].dispatcher probeAnswers 0
scalar FogNoLB.fog[52].dispatcher droppedJobsSLA 0
scalar FogNoLB.fog[52].dispatcher jobs_class_1 515529
scalar FogNoLB.fog[52].dispatcher localJobs_class_1 515529
scalar FogNoLB.fog[52].server[0] rho 0.79528933763504
scalar FogNoLB.fog[52].server[0] congestionRatio 0
scalar FogNoLB.fog[52].server[0] totalJobs 515529
scalar FogNoLB.fog[52].server[0] droppedJobsQueue 366
scalar FogNoLB.fog[52].server[0] droppedJobsTimout 4020
scalar FogNoLB.fog[52].server[0] droppedJobsSLA 0
scalar FogNoLB.fog[52].server[0] droppedJobsTotal 4386
scalar FogNoLB.fog[53].dispatcher localJobs 517490
scalar FogNoLB.fog[53].dispatcher remoteJobs 0
scalar FogNoLB.fog[53].dispatcher probeQueries 0
scalar FogNoLB.fog[53].dispatcher probeAnswers 0
scalar FogNoLB.fog[53].dispatcher droppedJobsSLA 0
scalar FogNoLB.fog[53].dispatcher jobs_class_1 517490
scalar FogNoLB.fog[53].dispatcher localJobs_class_1 517490
scalar FogNoLB.fog[53].server[0] rho 0.79858094453812
scalar FogNoLB.fog[53].server[0] congestionRatio 0
scalar FogNoLB.fog[53].server[0] totalJobs 517490
scalar FogNoLB.fog[53].server[0] droppedJobsQueue 301
scalar FogNoLB.fog[53].server[0] droppedJobsTimout 3614
scalar FogNoLB.fog[53].server[0] droppedJobsSLA 0
scalar FogNoLB.fog[53].server[0] droppedJobsTotal 3915
scalar FogNoLB.fog[54].dispatcher localJobs 516940
scalar FogNoLB.fog[54].dispatcher remoteJobs 0
scalar FogNoLB.fog[54].dispatcher probeQueries 0
scalar FogNoLB.fog[54].dispatcher probeAnswers 0
scalar FogNoLB.fog[54].dispatcher droppedJobsSLA 0
scalar FogNoLB.fog[54].dispatcher jobs_class_1 516940
scalar FogNoLB.fog[54].dispatcher localJobs_class_1 516940
scalar FogNoLB.fog[54].server[0] rho 0.79769420623779
scalar FogNoLB.fog[54].server[0] congestionRatio 0
scalar FogNoLB.fog[54].server[0] totalJobs 516940
scalar FogNoLB.fog[54].server[0] droppedJobsQueue 330
scalar FogNoLB.fog[54].server[0] droppedJobsTimout 3651
scalar FogNoLB.fog[54].server[0] droppedJobsSLA 0
scalar FogNoLB.fog[54].server[0] droppedJobsTotal 3981
scalar FogNoLB.fog[55].dispatcher localJobs 515922
scalar FogNoLB.fog[55].dispatcher remoteJobs 0
scalar FogNoLB.fog[55].dispatcher probeQueries 0
scalar FogNoLB.fog[55].dispatcher probeAnswers 0
scalar FogNoLB.fog[55].dispatcher droppedJobsSLA 0
scalar FogNoLB.fog[55].dispatcher jobs_class_1 515922
scalar FogNoLB.fog[55].dispatcher localJobs_class_1 515922
scalar FogNoLB.fog[55].server[0] rho 0.79577791690826
scalar FogNoLB.fog[55].server[0] congestionRatio 0
scalar FogNoLB.fog[55].server[0] totalJobs 515922
scalar FogNoLB.fog[55].server[0] droppedJobsQueue 388
scalar FogNoLB.fog[55].server[0] droppedJobsTimout 4165
scalar FogNoLB.fog[55].server[0] droppedJobsSLA 0
scalar FogNoLB.fog[55].server[0] droppedJobsTotal 4553
scalar FogNoLB.fog[56].dispatcher localJobs 517579
scalar FogNoLB.fog[56].dispatcher remoteJobs 0
scalar FogNoLB.fog[56].dispatcher probeQueries 0
scalar FogNoLB.fog[56].dispatcher probeAnswers 0
scalar FogNoLB.fog[56].dispatcher droppedJobsSLA 0
scalar FogNoLB.fog[56].dispatcher jobs_class_1 517579
scalar FogNoLB.fog[56].dispatcher localJobs_class_1 517579
scalar FogNoLB.fog[56].server[0] rho 0.79844254255295
scalar FogNoLB.fog[56].server[0] congestionRatio 0
scalar FogNoLB.fog[56].server[0] totalJobs 517579
scalar FogNoLB.fog[56].server[0] droppedJobsQueue 357
scalar FogNoLB.fog[56].server[0] droppedJobsTimout 4176
scalar FogNoLB.fog[56].server[0] droppedJobsSLA 0
scalar FogNoLB.fog[56].server[0] droppedJobsTotal 4533
scalar FogNoLB.fog[57].dispatcher localJobs 517825
scalar FogNoLB.fog[57].dispatcher remoteJobs 0
scalar FogNoLB.fog[57].dispatcher probeQueries 0
scalar FogNoLB.fog[57].dispatcher probeAnswers 0
scalar FogNoLB.fog[57].dispatcher droppedJobsSLA 0
scalar FogNoLB.fog[57].dispatcher jobs_class_1 517825
scalar FogNoLB.fog[57].dispatcher localJobs_class_1 517825
scalar FogNoLB.fog[57].server[0] rho 0.79887712001801
scalar FogNoLB.fog[57].server[0] congestionRatio 0
scalar FogNoLB.fog[57].server[0] totalJobs 517825
scalar FogNoLB.fog[57].server[0] droppedJobsQueue 359
scalar FogNoLB.fog[57].server[0] droppedJobsTimout 3878
scalar FogNoLB.fog[57].server[0] droppedJobsSLA 0
scalar FogNoLB.fog[57].server[0] droppedJobsTotal 4237
scalar FogNoLB.fog[58].dispatcher localJobs 515392
scalar FogNoLB.fog[58].dispatcher remoteJobs 0
scalar FogNoLB.fog[58].dispatcher probeQueries 0
scalar FogNoLB.fog[58].dispatcher probeAnswers 0
scalar FogNoLB.fog[58].dispatcher droppedJobsSLA 0
scalar FogNoLB.fog[58].dispatcher jobs_class_1 515392
scalar FogNoLB.fog[58].dispatcher localJobs_class_1 515392
scalar FogNoLB.fog[58].server[0] rho 0.79520362615585
scalar FogNoLB.fog[58].server[0] congestionRatio 0
scalar FogNoLB.fog[58].server[0] totalJobs 515392
scalar FogNoLB.fog[58].server[0] droppedJobsQueue 344
scalar FogNoLB.fog[58].server[0] droppedJobsTimout 3841
scalar FogNoLB.fog[58].server[0] droppedJobsSLA 0
scalar FogNoLB.fog[58].server[0] droppedJobsTotal 4185
scalar FogNoLB.fog[59].dispatcher localJobs 518421
scalar FogNoLB.fog[59].dispatcher remoteJobs 0
scalar FogNoLB.fog[59].dispatcher probeQueries 0
scalar FogNoLB.fog[59].dispatcher probeAnswers 0
scalar FogNoLB.fog[59].dispatcher droppedJobsSLA 0
scalar FogNoLB.fog[59].dispatcher jobs_class_1 518421
scalar FogNoLB.fog[59].dispatcher localJobs_class_1 518421
scalar FogNoLB.fog[59].server[0] rho 0.79957568645477
scalar FogNoLB.fog[59].server[0] congestionRatio 0
scalar FogNoLB.fog[59].server[0] totalJobs 518421
scalar FogNoLB.fog[59].server[0] droppedJobsQueue 378
scalar FogNoLB.fog[59].server[0] droppedJobsTimout 4360
scalar FogNoLB.fog[59].server[0] droppedJobsSLA 0
scalar FogNoLB.fog[59].server[0] droppedJobsTotal 4738
scalar FogNoLB.fog[60].dispatcher localJobs 517854
scalar FogNoLB.fog[60].dispatcher remoteJobs 0
scalar FogNoLB.fog[60].dispatcher probeQueries 0
scalar FogNoLB.fog[60].dispatcher probeAnswers 0
scalar FogNoLB.fog[60].dispatcher droppedJobsSLA 0
scalar FogNoLB.fog[60].dispatcher jobs_class_1 517854
scalar FogNoLB.fog[60].dispatcher localJobs_class_1 517854
scalar FogNoLB.fog[60].server[0] rho 0.79855865240097
scalar FogNoLB.fog[60].server[0] congestionRatio 0
scalar FogNoLB.fog[60].server[0] totalJobs 517854
scalar FogNoLB.fog[60].server[0] droppedJobsQueue 458
scalar FogNoLB.fog[60].server[0] droppedJobsTimout 4496
scalar FogNoLB.fog[60].server[0] droppedJobsSLA 0
scalar FogNoLB.fog[60].server[0] droppedJobsTotal 4954
scalar FogNoLB.fog[61].dispatcher localJobs 518153
scalar FogNoLB.fog[61].dispatcher remoteJobs 0
scalar FogNoLB.fog[61].dispatcher probeQueries 0
scalar FogNoLB.fog[61].dispatcher probeAnswers 0
scalar FogNoLB.fog[61].dispatcher droppedJobsSLA 0
scalar FogNoLB.fog[61].dispatcher jobs_class_1 518153
scalar FogNoLB.fog[61].dispatcher localJobs_class_1 518153
scalar FogNoLB.fog[61].server[0] rho 0.79924428462982
scalar FogNoLB.fog[61].server[0] congestionRatio 0
scalar FogNoLB.fog[61].server[0] totalJobs 518153
scalar FogNoLB.fog[61].server[0] droppedJobsQueue 394
scalar FogNoLB.fog[61].server[0] droppedJobsTimout 4259
scalar FogNoLB.fog[61].server[0] droppedJobsSLA 0
scalar FogNoLB.fog[61].server[0] droppedJobsTotal 4653
scalar FogNoLB.fog[62].dispatcher localJobs 516857
scalar FogNoLB.fog[62].dispatcher remoteJobs 0
scalar FogNoLB.fog[62].dispatcher probeQueries 0
scalar FogNoLB.fog[62].dispatcher probeAnswers 0
scalar FogNoLB.fog[62].dispatcher droppedJobsSLA 0
scalar FogNoLB.fog[62].dispatcher jobs_class_1 516857
scalar FogNoLB.fog[62].dispatcher localJobs_class_1 516857
scalar FogNoLB.fog[62].server[0] rho 0.79728382825851
scalar FogNoLB.fog[62].server[0] congestionRatio 0
scalar FogNoLB.fog[62].server[0] totalJobs 516857
scalar FogNoLB.fog[62].server[0] droppedJobsQueue 334
scalar FogNoLB.fog[62].server[0] droppedJobsTimout 4187
scalar FogNoLB.fog[62].server[0] droppedJobsSLA 0
scalar FogNoLB.fog[62].server[0] droppedJobsTotal 4521
scalar FogNoLB.fog[63].dispatcher localJobs 516927
scalar FogNoLB.fog[63].dispatcher remoteJobs 0
scalar FogNoLB.fog[63].dispatcher probeQueries 0
scalar FogNoLB.fog[63].dispatcher probeAnswers 0
scalar FogNoLB.fog[63].dispatcher droppedJobsSLA 0
scalar FogNoLB.fog[63].dispatcher jobs_class_1 516927
scalar FogNoLB.fog[63].dispatcher localJobs_class_1 516927
scalar FogNoLB.fog[63].server[0] rho 0.79722154140472
scalar FogNoLB.fog[63].server[0] congestionRatio 0
scalar FogNoLB.fog[63].server[0] totalJobs 516927
scalar FogNoLB.fog[63].server[0] droppedJobsQueue 419
scalar FogNoLB.fog[63].server[0] droppedJobsTimout 4392
scalar FogNoLB.fog[63].server[0] droppedJobsSLA 0
scalar FogNoLB.fog[63].server[0] droppedJobsTotal 4811
scalar FogNoLB.fog[64].dispatcher localJobs 518326
scalar FogNoLB.fog[64].dispatcher remoteJobs 0
scalar FogNoLB.fog[64].dispatcher probeQueries 0
scalar FogNoLB.fog[64].dispatcher probeAnswers 0
scalar FogNoLB.fog[64].dispatcher droppedJobsSLA 0
scalar FogNoLB.fog[64].dispatcher jobs_class_1 518326
scalar FogNoLB.fog[64].dispatcher localJobs_class_1 518326
scalar FogNoLB.fog[64].server[0] rho 0.79964643716812
scalar FogNoLB.fog[64].server[0] congestionRatio 0
scalar FogNoLB.fog[64].server[0] totalJobs 518326
scalar FogNoLB.fog[64].server[0] droppedJobsQueue 334
scalar FogNoLB.fog[64].server[0] droppedJobsTimout 4015
scalar FogNoLB.fog[64].server[0] droppedJobsSLA 0
scalar FogNoLB.fog[64].server[0] droppedJobsTotal 4349
scalar FogNoLB.fog[65].dispatcher localJobs 516582
scalar FogNoLB.fog[65].dispatcher remoteJobs 0
scalar FogNoLB.fog[65].dispatcher probeQueries 0
scalar FogNoLB.fog[65].dispatcher probeAnswers 0
scalar FogNoLB.fog[65].dispatcher droppedJobsSLA 0
scalar FogNoLB.fog[65].dispatcher jobs_class_1 516582
scalar FogNoLB.fog[65].dispatcher localJobs_class_1 516582
scalar FogNoLB.fog[65].server[0] rho 0.79704785346985
scalar FogNoLB.fog[65].server[0] congestionRatio 0
scalar FogNoLB.fog[65].server[0] totalJobs 516582
scalar FogNoLB.fog[65].server[0] droppedJobsQueue 343
scalar FogNoLB.fog[65].server[0] droppedJobsTimout 3682
scalar FogNoLB.fog[65].server[0] droppedJobsSLA 0
scalar FogNoLB.fog[65].server[0] droppedJobsTotal 4025
scalar FogNoLB.fog[66].dispatcher localJobs 516177
scalar FogNoLB.fog[66].dispatcher remoteJobs 0
scalar FogNoLB.fog[66].dispatcher probeQueries 0
scalar FogNoLB.fog[66].dispatcher probeAnswers 0
scalar FogNoLB.fog[66].dispatcher droppedJobsSLA 0
scalar FogNoLB.fog[66].dispatcher jobs_class_1 516177
scalar FogNoLB.fog[66].dispatcher localJobs_class_1 516177
scalar FogNoLB.fog[66].server[0] rho 0.7963450551033
scalar FogNoLB.fog[66].server[0] congestionRatio 0
scalar FogNoLB.fog[66].server[0] totalJobs 516177
scalar FogNoLB.fog[66].server[0] droppedJobsQueue 368
scalar FogNoLB.fog[66].server[0] droppedJobsTimout 3893
scalar FogNoLB.fog[66].server[0] droppedJobsSLA 0
scalar FogNoLB.fog[66].server[0] droppedJobsTotal 4261
scalar FogNoLB.fog[67].dispatcher localJobs 518421
scalar FogNoLB.fog[67].dispatcher remoteJobs 0
scalar FogNoLB.fog[67].dispatcher probeQueries 0
scalar FogNoLB.fog[67].dispatcher probeAnswers 0
scalar FogNoLB.fog[67].dispatcher droppedJobsSLA 0
scalar FogNoLB.fog[67].dispatcher jobs_class_1 518421
scalar FogNoLB.fog[67].dispatcher localJobs_class_1 518421
scalar FogNoLB.fog[67].server[0] rho 0.79955321550369
scalar FogNoLB.fog[67].server[0] congestionRatio 0
scalar FogNoLB.fog[67].server[0] totalJobs 518421
scalar FogNoLB.fog[67].server[0] droppedJobsQueue 437
scalar FogNoLB.fog[67].server[0] droppedJobsTimout 4282
scalar FogNoLB.fog[67].server[0] droppedJobsSLA 0
scalar FogNoLB.fog[67].server[0] droppedJobsTotal 4719
scalar FogNoLB.fog[68].dispatcher localJobs 518660
scalar FogNoLB.fog[68].dispatcher remoteJobs 0
scalar FogNoLB.fog[68].dispatcher probeQueries 0
scalar FogNoLB.fog[68].dispatcher probeAnswers 0
scalar FogNoLB.fog[68].dispatcher droppedJobsSLA 0
scalar FogNoLB.fog[68].dispatcher jobs_class_1 518660
scalar FogNoLB.fog[68].dispatcher localJobs_class_1 518660
scalar FogNoLB.fog[68].server[0] rho 0.79991245269775
scalar FogNoLB.fog[68].server[0] congestionRatio 0
scalar FogNoLB.fog[68].server[0] totalJobs 518660
scalar FogNoLB.fog[68].server[0] droppedJobsQueue 405
scalar FogNoLB.fog[68].server[0] droppedJobsTimout 4363
scalar FogNoLB.fog[68].server[0] droppedJobsSLA 0
scalar FogNoLB.fog[68].server[0] droppedJobsTotal 4768
scalar FogNoLB.fog[69].dispatcher localJobs 518074
scalar FogNoLB.fog[69].dispatcher remoteJobs 0
scalar FogNoLB.fog[69].dispatcher probeQueries 0
scalar FogNoLB.fog[69].dispatcher probeAnswers 0
scalar FogNoLB.fog[69].dispatcher droppedJobsSLA 0
scalar FogNoLB.fog[69].dispatcher jobs_class_1 518074
scalar FogNoLB.fog[69].dispatcher localJobs_class_1 518074
scalar FogNoLB.fog[69].server[0] rho 0.79932922124863
scalar FogNoLB.fog[69].server[0] congestionRatio 0
scalar FogNoLB.fog[69].server[0] totalJobs 518074
scalar FogNoLB.fog[69].server[0] droppedJobsQueue 335
scalar FogNoLB.fog[69].server[0] droppedJobsTimout 3912
scalar FogNoLB.fog[69].server[0] droppedJobsSLA 0
scalar FogNoLB.fog[69].server[0] droppedJobsTotal 4247
scalar FogNoLB.fog[70].dispatcher localJobs 517101
scalar FogNoLB.fog[70].dispatcher remoteJobs 0
scalar FogNoLB.fog[70].dispatcher probeQueries 0
scalar FogNoLB.fog[70].dispatcher probeAnswers 0
scalar FogNoLB.fog[70].dispatcher droppedJobsSLA 0
scalar FogNoLB.fog[70].dispatcher jobs_class_1 517101
scalar FogNoLB.fog[70].dispatcher localJobs_class_1 517101
scalar FogNoLB.fog[70].server[0] rho 0.79771691560745
scalar FogNoLB.fog[70].server[0] congestionRatio 0
scalar FogNoLB.fog[70].server[0] totalJobs 517101
scalar FogNoLB.fog[70].server[0] droppedJobsQueue 349
scalar FogNoLB.fog[70].server[0] droppedJobsTimout 4166
scalar FogNoLB.fog[70].server[0] droppedJobsSLA 0
scalar FogNoLB.fog[70].server[0] droppedJobsTotal 4515
scalar FogNoLB.fog[71].dispatcher localJobs 519053
scalar FogNoLB.fog[71].dispatcher remoteJobs 0
scalar FogNoLB.fog[71].dispatcher probeQueries 0
scalar FogNoLB.fog[71].dispatcher probeAnswers 0
scalar FogNoLB.fog[71].dispatcher droppedJobsSLA 0
scalar FogNoLB.fog[71].dispatcher jobs_class_1 519053
scalar FogNoLB.fog[71].dispatcher localJobs_class_1 519053
scalar FogNoLB.fog[71].server[0] rho 0.8004338145256
scalar FogNoLB.fog[71].server[0] congestionRatio 0
scalar FogNoLB.fog[71].server[0] totalJobs 519053
scalar FogNoLB.fog[71].server[0] droppedJobsQueue 415
scalar FogNoLB.fog[71].server[0] droppedJobsTimout 4590
scalar FogNoLB.fog[71].server[0] droppedJobsSLA 0
scalar FogNoLB.fog[71].server[0] droppedJobsTotal 5005
scalar FogNoLB.fog[72].dispatcher localJobs 517292
scalar FogNoLB.fog[72].dispatcher remoteJobs 0
scalar FogNoLB.fog[72].dispatcher probeQueries 0
scalar FogNoLB.fog[72].dispatcher probeAnswers 0
scalar FogNoLB.fog[72].dispatcher droppedJobsSLA 0
scalar FogNoLB.fog[72].dispatcher jobs_class_1 517292
scalar FogNoLB.fog[72].dispatcher localJobs_class_1 517292
scalar FogNoLB.fog[72].server[0] rho 0.79816615581512
scalar FogNoLB.fog[72].server[0] congestionRatio 0
scalar FogNoLB.fog[72].server[0] totalJobs 517292
scalar FogNoLB.fog[72].server[0] droppedJobsQueue 305
scalar FogNoLB.fog[72].server[0] droppedJobsTimout 4065
scalar FogNoLB.fog[72].server[0] droppedJobsSLA 0
scalar FogNoLB.fog[72].server[0] droppedJobsTotal 4370
scalar FogNoLB.fog[73].dispatcher localJobs 517713
scalar FogNoLB.fog[73].dispatcher remoteJobs 0
scalar FogNoLB.fog[73].dispatcher probeQueries 0
scalar FogNoLB.fog[73].dispatcher probeAnswers 0
scalar FogNoLB.fog[73].dispatcher droppedJobsSLA 0
scalar FogNoLB.fog[73].dispatcher jobs_class_1 517713
scalar FogNoLB.fog[73].dispatcher localJobs_class_1 517713
scalar FogNoLB.fog[73].server[0] rho 0.79857766628265
scalar FogNoLB.fog[73].server[0] congestionRatio 0
scalar FogNoLB.fog[73].server[0] totalJobs 517713
scalar FogNoLB.fog[73].server[0] droppedJobsQueue 375
scalar FogNoLB.fog[73].server[0] droppedJobsTimout 4223
scalar FogNoLB.fog[73].server[0] droppedJobsSLA 0
scalar FogNoLB.fog[73].server[0] droppedJobsTotal 4598
scalar FogNoLB.fog[74].dispatcher localJobs 517251
scalar FogNoLB.fog[74].dispatcher remoteJobs 0
scalar FogNoLB.fog[74].dispatcher probeQueries 0
scalar FogNoLB.fog[74].dispatcher probeAnswers 0
scalar FogNoLB.fog[74].dispatcher droppedJobsSLA 0
scalar FogNoLB.fog[74].dispatcher jobs_class_1 517251
scalar FogNoLB.fog[74].dispatcher localJobs_class_1 517251
scalar FogNoLB.fog[74].server[0] rho 0.79800832271576
scalar FogNoLB.fog[74].server[0] congestionRatio 0
scalar FogNoLB.fog[74].server[0] totalJobs 517251
scalar FogNoLB.fog[74].server[0] droppedJobsQueue 345
scalar FogNoLB.fog[74].server[0] droppedJobsTimout 3831
scalar FogNoLB.fog[74].server[0] droppedJobsSLA 0
scalar FogNoLB.fog[74].server[0] droppedJobsTotal 4176
scalar FogNoLB.fog[75].dispatcher localJobs 517152
scalar FogNoLB.fog[75].dispatcher remoteJobs 0
scalar FogNoLB.fog[75].dispatcher probeQueries 0
scalar FogNoLB.fog[75].dispatcher probeAnswers 0
scalar FogNoLB.fog[75].dispatcher droppedJobsSLA 0
scalar FogNoLB.fog[75].dispatcher jobs_class_1 517152
scalar FogNoLB.fog[75].dispatcher localJobs_class_1 517152
scalar FogNoLB.fog[75].server[0] rho 0.79761493206024
scalar FogNoLB.fog[75].server[0] congestionRatio 0
scalar FogNoLB.fog[75].server[0] totalJobs 517152
scalar FogNoLB.fog[75].server[0] droppedJobsQueue 400
scalar FogNoLB.fog[75].server[0] droppedJobsTimout 4294
scalar FogNoLB.fog[75].server[0] droppedJobsSLA 0
scalar FogNoLB.fog[75].server[0] droppedJobsTotal 4694
scalar FogNoLB.fog[76].dispatcher localJobs 517513
scalar FogNoLB.fog[76].dispatcher remoteJobs 0
scalar FogNoLB.fog[76].dispatcher probeQueries 0
scalar FogNoLB.fog[76].dispatcher probeAnswers 0
scalar FogNoLB.fog[76].dispatcher droppedJobsSLA 0
scalar FogNoLB.fog[76].dispatcher jobs_class_1 517513
scalar FogNoLB.fog[76].dispatcher localJobs_class_1 517513
scalar FogNoLB.fog[76].server[0] rho 0.79844862222672
scalar FogNoLB.fog[76].server[0] congestionRatio 0
scalar FogNoLB.fog[76].server[0] totalJobs 517513
scalar FogNoLB.fog[76].server[0] droppedJobsQueue 335
scalar FogNoLB.fog[76].server[0] droppedJobsTimout 3757
scalar FogNoLB.fog[76].server[0] droppedJobsSLA 0
scalar FogNoLB.fog[76].server[0] droppedJobsTotal 4092
scalar FogNoLB.fog[77].dispatcher localJobs 516304
scalar FogNoLB.fog[77].dispatcher remoteJobs 0
scalar FogNoLB.fog[77].dispatcher probeQueries 0
scalar FogNoLB.fog[77].dispatcher probeAnswers 0
scalar FogNoLB.fog[77].dispatcher droppedJobsSLA 0
scalar FogNoLB.fog[77].dispatcher jobs_class_1 516304
scalar FogNoLB.fog[77].dispatcher localJobs_class_1 516304
scalar FogNoLB.fog[77].server[0] rho 0.79654824733734
scalar FogNoLB.fog[77].server[0] congestionRatio 0
scalar FogNoLB.fog[77].server[0] totalJobs 516304
scalar FogNoLB.fog[77].server[0] droppedJobsQueue 336
scalar FogNoLB.fog[77].server[0] droppedJobsTimout 3804
scalar FogNoLB.fog[77].server[0] droppedJobsSLA 0
scalar FogNoLB.fog[77].server[0] droppedJobsTotal 4140
scalar FogNoLB.fog[78].dispatcher localJobs 517415
scalar FogNoLB.fog[78].dispatcher remoteJobs 0
scalar FogNoLB.fog[78].dispatcher probeQueries 0
scalar FogNoLB.fog[78].dispatcher probeAnswers 0
scalar FogNoLB.fog[78].dispatcher droppedJobsSLA 0
scalar FogNoLB.fog[78].dispatcher jobs_class_1 517415
scalar FogNoLB.fog[78].dispatcher localJobs_class_1 517415
scalar FogNoLB.fog[78].server[0] rho 0.79817777872086
scalar FogNoLB.fog[78].server[0] congestionRatio 0
scalar FogNoLB.fog[78].server[0] totalJobs 517415
scalar FogNoLB.fog[78].server[0] droppedJobsQueue 374
scalar FogNoLB.fog[78].server[0] droppedJobsTimout 4104
scalar FogNoLB.fog[78].server[0] droppedJobsSLA 0
scalar FogNoLB.fog[78].server[0] droppedJobsTotal 4478
scalar FogNoLB.fog[79].dispatcher localJobs 516979
scalar FogNoLB.fog[79].dispatcher remoteJobs 0
scalar FogNoLB.fog[79].dispatcher probeQueries 0
scalar FogNoLB.fog[79].dispatcher probeAnswers 0
scalar FogNoLB.fog[79].dispatcher droppedJobsSLA 0
scalar FogNoLB.fog[79].dispatcher jobs_class_1 516979
scalar FogNoLB.fog[79].dispatcher localJobs_class_1 516979
scalar FogNoLB.fog[79].server[0] rho 0.79754447937012
scalar FogNoLB.fog[79].server[0] congestionRatio 0
scalar FogNoLB.fog[79].server[0] totalJobs 516979
scalar FogNoLB.fog[79].server[0] droppedJobsQueue 356
scalar FogNoLB.fog[79].server[0] droppedJobsTimout 3979
scalar FogNoLB.fog[79].server[0] droppedJobsSLA 0
scalar FogNoLB.fog[79].server[0] droppedJobsTotal 4335
scalar FogNoLB.fog[80].dispatcher localJobs 516206
scalar FogNoLB.fog[80].dispatcher remoteJobs 0
scalar FogNoLB.fog[80].dispatcher probeQueries 0
scalar FogNoLB.fog[80].dispatcher probeAnswers 0
scalar FogNoLB.fog[80].dispatcher droppedJobsSLA 0
scalar FogNoLB.fog[80].dispatcher jobs_class_1 516206
scalar FogNoLB.fog[80].dispatcher localJobs_class_1 516206
scalar FogNoLB.fog[80].server[0] rho 0.79633092880249
scalar FogNoLB.fog[80].server[0] congestionRatio 0
scalar FogNoLB.fog[80].server[0] totalJobs 516206
scalar FogNoLB.fog[80].server[0] droppedJobsQueue 360
scalar FogNoLB.fog[80].server[0] droppedJobsTimout 4083
scalar FogNoLB.fog[80].server[0] droppedJobsSLA 0
scalar FogNoLB.fog[80].server[0] droppedJobsTotal 4443
scalar FogNoLB.fog[81].dispatcher localJobs 516034
scalar FogNoLB.fog[81].dispatcher remoteJobs 0
scalar FogNoLB.fog[81].dispatcher probeQueries 0
scalar FogNoLB.fog[81].dispatcher probeAnswers 0
scalar FogNoLB.fog[81].dispatcher droppedJobsSLA 0
scalar FogNoLB.fog[81].dispatcher jobs_class_1 516034
scalar FogNoLB.fog[81].dispatcher localJobs_class_1 516034
scalar FogNoLB.fog[81].server[0] rho 0.79607433080673
scalar FogNoLB.fog[81].server[0] congestionRatio 0
scalar FogNoLB.fog[81].server[0] totalJobs 516034
scalar FogNoLB.fog[81].server[0] droppedJobsQueue 356
scalar FogNoLB.fog[81].server[0] droppedJobsTimout 4028
scalar FogNoLB.fog[81].server[0] droppedJobsSLA 0
scalar FogNoLB.fog[81].server[0] droppedJobsTotal 4384
scalar FogNoLB.fog[82].dispatcher localJobs 517265
scalar FogNoLB.fog[82].dispatcher remoteJobs 0
scalar FogNoLB.fog[82].dispatcher probeQueries 0
scalar FogNoLB.fog[82].dispatcher probeAnswers 0
scalar FogNoLB.fog[82].dispatcher droppedJobsSLA 0
scalar FogNoLB.fog[82].dispatcher jobs_class_1 517265
scalar FogNoLB.fog[82].dispatcher localJobs_class_1 517265
scalar FogNoLB.fog[82].server[0] rho 0.79759013652802
scalar FogNoLB.fog[82].server[0] congestionRatio 0
scalar FogNoLB.fog[82].server[0] totalJobs 517265
scalar FogNoLB.fog[82].server[0] droppedJobsQueue 448
scalar FogNoLB.fog[82].server[0] droppedJobsTimout 4513
scalar FogNoLB.fog[82].server[0] droppedJobsSLA 0
scalar FogNoLB.fog[82].server[0] droppedJobsTotal 4961
scalar FogNoLB.fog[83].dispatcher localJobs 518475
scalar FogNoLB.fog[83].dispatcher remoteJobs 0
scalar FogNoLB.fog[83].dispatcher probeQueries 0
scalar FogNoLB.fog[83].dispatcher probeAnswers 0
scalar FogNoLB.fog[83].dispatcher droppedJobsSLA 0
scalar FogNoLB.fog[83].dispatcher jobs_class_1 518475
scalar FogNoLB.fog[83].dispatcher localJobs_class_1 518475
scalar FogNoLB.fog[83].server[0] rho 0.79971289634705
scalar FogNoLB.fog[83].server[0] congestionRatio 0
scalar FogNoLB.fog[83].server[0] totalJobs 518475
scalar FogNoLB.fog[83].server[0] droppedJobsQueue 379
scalar FogNoLB.fog[83].server[0] droppedJobsTimout 4153
scalar FogNoLB.fog[83].server[0] droppedJobsSLA 0
scalar FogNoLB.fog[83].server[0] droppedJobsTotal 4532
scalar FogNoLB.fog[84].dispatcher localJobs 516490
scalar FogNoLB.fog[84].dispatcher remoteJobs 0
scalar FogNoLB.fog[84].dispatcher probeQueries 0
scalar FogNoLB.fog[84].dispatcher probeAnswers 0
scalar FogNoLB.fog[84].dispatcher droppedJobsSLA 0
scalar FogNoLB.fog[84].dispatcher jobs_class_1 516490
scalar FogNoLB.fog[84].dispatcher localJobs_class_1 516490
scalar FogNoLB.fog[84].server[0] rho 0.79669767618179
scalar FogNoLB.fog[84].server[0] congestionRatio 0
scalar FogNoLB.fog[84].server[0] totalJobs 516490
scalar FogNoLB.fog[84].server[0] droppedJobsQueue 360
scalar FogNoLB.fog[84].server[0] droppedJobsTimout 4038
scalar FogNoLB.fog[84].server[0] droppedJobsSLA 0
scalar FogNoLB.fog[84].server[0] droppedJobsTotal 4398
scalar FogNoLB.fog[85].dispatcher localJobs 516551
scalar FogNoLB.fog[85].dispatcher remoteJobs 0
scalar FogNoLB.fog[85].dispatcher probeQueries 0
scalar FogNoLB.fog[85].dispatcher probeAnswers 0
scalar FogNoLB.fog[85].dispatcher droppedJobsSLA 0
scalar FogNoLB.fog[85].dispatcher jobs_class_1 516551
scalar FogNoLB.fog[85].dispatcher localJobs_class_1 516551
scalar FogNoLB.fog[85].server[0] rho 0.79675602912903
scalar FogNoLB.fog[85].server[0] congestionRatio 0
scalar FogNoLB.fog[85].server[0] totalJobs 516551
scalar FogNoLB.fog[85].server[0] droppedJobsQueue 405
scalar FogNoLB.fog[85].server[0] droppedJobsTimout 4049
scalar FogNoLB.fog[85].server[0] droppedJobsSLA 0
scalar FogNoLB.fog[85].server[0] droppedJobsTotal 4454
scalar FogNoLB.fog[86].dispatcher localJobs 519097
scalar FogNoLB.fog[86].dispatcher remoteJobs 0
scalar FogNoLB.fog[86].dispatcher probeQueries 0
scalar FogNoLB.fog[86].dispatcher probeAnswers 0
scalar FogNoLB.fog[86].dispatcher droppedJobsSLA 0
scalar FogNoLB.fog[86].dispatcher jobs_class_1 519097
scalar FogNoLB.fog[86].dispatcher localJobs_class_1 519097
scalar FogNoLB.fog[86].server[0] rho 0.80051279067993
scalar FogNoLB.fog[86].server[0] congestionRatio 0
scalar FogNoLB.fog[86].server[0] totalJobs 519097
scalar FogNoLB.fog[86].server[0] droppedJobsQueue 424
scalar FogNoLB.fog[86].server[0] droppedJobsTimout 4375
scalar FogNoLB.fog[86].server[0] droppedJobsSLA 0
scalar FogNoLB.fog[86].server[0] droppedJobsTotal 4799
scalar FogNoLB.fog[87].dispatcher localJobs 518431
scalar FogNoLB.fog[87].dispatcher remoteJobs 0
scalar FogNoLB.fog[87].dispatcher probeQueries 0
scalar FogNoLB.fog[87].dispatcher probeAnswers 0
scalar FogNoLB.fog[87].dispatcher droppedJobsSLA 0
scalar FogNoLB.fog[87].dispatcher jobs_class_1 518431
scalar FogNoLB.fog[87].dispatcher localJobs_class_1 518431
scalar FogNoLB.fog[87].server[0] rho 0.79969483613968
scalar FogNoLB.fog[87].server[0] congestionRatio 0
scalar FogNoLB.fog[87].server[0] totalJobs 518431
scalar FogNoLB.fog[87].server[0] droppedJobsQueue 388
scalar FogNoLB.fog[87].server[0] droppedJobsTimout 4200
scalar FogNoLB.fog[87].server[0] droppedJobsSLA 0
scalar FogNoLB.fog[87].server[0] droppedJobsTotal 4588
scalar FogNoLB.fog[88].dispatcher localJobs 516924
scalar FogNoLB.fog[88].dispatcher remoteJobs 0
scalar FogNoLB.fog[88].dispatcher probeQueries 0
scalar FogNoLB.fog[88].dispatcher probeAnswers 0
scalar FogNoLB.fog[88].dispatcher droppedJobsSLA 0
scalar FogNoLB.fog[88].dispatcher jobs_class_1 516924
scalar FogNoLB.fog[88].dispatcher localJobs_class_1 516924
scalar FogNoLB.fog[88].server[0] rho 0.79743283987045
scalar FogNoLB.fog[88].server[0] congestionRatio 0
scalar FogNoLB.fog[88].server[0] totalJobs 516924
scalar FogNoLB.fog[88].server[0] droppedJobsQueue 362
scalar FogNoLB.fog[88].server[0] droppedJobsTimout 4056
scalar FogNoLB.fog[88].server[0] droppedJobsSLA 0
scalar FogNoLB.fog[88].server[0] droppedJobsTotal 4418
scalar FogNoLB.fog[89].dispatcher localJobs 516966
scalar FogNoLB.fog[89].dispatcher remoteJobs 0
scalar FogNoLB.fog[89].dispatcher probeQueries 0
scalar FogNoLB.fog[89].dispatcher probeAnswers 0
scalar FogNoLB.fog[89].dispatcher droppedJobsSLA 0
scalar FogNoLB.fog[89].dispatcher jobs_class_1 516966
scalar FogNoLB.fog[89].dispatcher localJobs_class_1 516966
scalar FogNoLB.fog[89].server[0] rho 0.79751098155975
scalar FogNoLB.fog[89].server[0] congestionRatio 0
scalar FogNoLB.fog[89].server[0] totalJobs 516966
scalar FogNoLB.fog[89].server[0] droppedJobsQueue 349
scalar FogNoLB.fog[89].server[0] droppedJobsTimout 4051
scalar FogNoLB.fog[89].server[0] droppedJobsSLA 0
scalar FogNoLB.fog[89].server[0] droppedJobsTotal 4400
scalar FogNoLB.fog[90].dispatcher localJobs 518970
scalar FogNoLB.fog[90].dispatcher remoteJobs 0
scalar FogNoLB.fog[90].dispatcher probeQueries 0
scalar FogNoLB.fog[90].dispatcher probeAnswers 0
scalar FogNoLB.fog[90].dispatcher droppedJobsSLA 0
scalar FogNoLB.fog[90].dispatcher jobs_class_1 518970
scalar FogNoLB.fog[90].dispatcher localJobs_class_1 518970
scalar FogNoLB.fog[90].server[0] rho 0.80051702260971
scalar FogNoLB.fog[90].server[0] congestionRatio 0
scalar FogNoLB.fog[90].server[0] totalJobs 518970
scalar FogNoLB.fog[90].server[0] droppedJobsQueue 375
scalar FogNoLB.fog[90].server[0] droppedJobsTimout 4220
scalar FogNoLB.fog[90].server[0] droppedJobsSLA 0
scalar FogNoLB.fog[90].server[0] droppedJobsTotal 4595
scalar FogNoLB.fog[91].dispatcher localJobs 517600
scalar FogNoLB.fog[91].dispatcher remoteJobs 0
scalar FogNoLB.fog[91].dispatcher probeQueries 0
scalar FogNoLB.fog[91].dispatcher probeAnswers 0
scalar FogNoLB.fog[91].dispatcher droppedJobsSLA 0
scalar FogNoLB.fog[91].dispatcher jobs_class_1 517600
scalar FogNoLB.fog[91].dispatcher localJobs_class_1 517600
scalar FogNoLB.fog[91].server[0] rho 0.79850172996521
scalar FogNoLB.fog[91].server[0] congestionRatio 0
scalar FogNoLB.fog[91].server[0] totalJobs 517600
scalar FogNoLB.fog[91].server[0] droppedJobsQueue 351
scalar FogNoLB.fog[91].server[0] droppedJobsTimout 4008
scalar FogNoLB.fog[91].server[0] droppedJobsSLA 0
scalar FogNoLB.fog[91].server[0] droppedJobsTotal 4359
scalar FogNoLB.fog[92].dispatcher localJobs 517526
scalar FogNoLB.fog[92].dispatcher remoteJobs 0
scalar FogNoLB.fog[92].dispatcher probeQueries 0
scalar FogNoLB.fog[92].dispatcher probeAnswers 0
scalar FogNoLB.fog[92].dispatcher droppedJobsSLA 0
scalar FogNoLB.fog[92].dispatcher jobs_class_1 517526
scalar FogNoLB.fog[92].dispatcher localJobs_class_1 517526
scalar FogNoLB.fog[92].server[0] rho 0.79843723773956
scalar FogNoLB.fog[92].server[0] congestionRatio 0
scalar FogNoLB.fog[92].server[0] totalJobs 517526
scalar FogNoLB.fog[92].server[0] droppedJobsQueue 323
scalar FogNoLB.fog[92].server[0] droppedJobsTimout 3720
scalar FogNoLB.fog[92].server[0] droppedJobsSLA 0
scalar FogNoLB.fog[92].server[0] droppedJobsTotal 4043
scalar FogNoLB.fog[93].dispatcher localJobs 516869
scalar FogNoLB.fog[93].dispatcher remoteJobs 0
scalar FogNoLB.fog[93].dispatcher probeQueries 0
scalar FogNoLB.fog[93].dispatcher probeAnswers 0
scalar FogNoLB.fog[93].dispatcher droppedJobsSLA 0
scalar FogNoLB.fog[93].dispatcher jobs_class_1 516869
scalar FogNoLB.fog[93].dispatcher localJobs_class_1 516869
scalar FogNoLB.fog[93].server[0] rho 0.79730486869812
scalar FogNoLB.fog[93].server[0] congestionRatio 0
scalar FogNoLB.fog[93].server[0] totalJobs 516869
scalar FogNoLB.fog[93].server[0] droppedJobsQueue 399
scalar FogNoLB.fog[93].server[0] droppedJobsTimout 3938
scalar FogNoLB.fog[93].server[0] droppedJobsSLA 0
scalar FogNoLB.fog[93].server[0] droppedJobsTotal 4337
scalar FogNoLB.fog[94].dispatcher localJobs 517911
scalar FogNoLB.fog[94].dispatcher remoteJobs 0
scalar FogNoLB.fog[94].dispatcher probeQueries 0
scalar FogNoLB.fog[94].dispatcher probeAnswers 0
scalar FogNoLB.fog[94].dispatcher droppedJobsSLA 0
scalar FogNoLB.fog[94].dispatcher jobs_class_1 517911
scalar FogNoLB.fog[94].dispatcher localJobs_class_1 517911
scalar FogNoLB.fog[94].server[0] rho 0.79887694120407
scalar FogNoLB.fog[94].server[0] congestionRatio 0
scalar FogNoLB.fog[94].server[0] totalJobs 517911
scalar FogNoLB.fog[94].server[0] droppedJobsQueue 343
scalar FogNoLB.fog[94].server[0] droppedJobsTimout 4239
scalar FogNoLB.fog[94].server[0] droppedJobsSLA 0
scalar FogNoLB.fog[94].server[0] droppedJobsTotal 4582
scalar FogNoLB.fog[95].dispatcher localJobs 517465
scalar FogNoLB.fog[95].dispatcher remoteJobs 0
scalar FogNoLB.fog[95].dispatcher probeQueries 0
scalar FogNoLB.fog[95].dispatcher probeAnswers 0
scalar FogNoLB.fog[95].dispatcher droppedJobsSLA 0
scalar FogNoLB.fog[95].dispatcher jobs_class_1 517465
scalar FogNoLB.fog[95].dispatcher localJobs_class_1 517465
scalar FogNoLB.fog[95].server[0] rho 0.79816257953644
scalar FogNoLB.fog[95].server[0] congestionRatio 0
scalar FogNoLB.fog[95].server[0] totalJobs 517465
scalar FogNoLB.fog[95].server[0] droppedJobsQueue 389
scalar FogNoLB.fog[95].server[0] droppedJobsTimout 4245
scalar FogNoLB.fog[95].server[0] droppedJobsSLA 0
scalar FogNoLB.fog[95].server[0] droppedJobsTotal 4634
scalar FogNoLB.fog[96].dispatcher localJobs 516768
scalar FogNoLB.fog[96].dispatcher remoteJobs 0
scalar FogNoLB.fog[96].dispatcher probeQueries 0
scalar FogNoLB.fog[96].dispatcher probeAnswers 0
scalar FogNoLB.fog[96].dispatcher droppedJobsSLA 0
scalar FogNoLB.fog[96].dispatcher jobs_class_1 516768
scalar FogNoLB.fog[96].dispatcher localJobs_class_1 516768
scalar FogNoLB.fog[96].server[0] rho 0.79721164703369
scalar FogNoLB.fog[96].server[0] congestionRatio 0
scalar FogNoLB.fog[96].server[0] totalJobs 516768
scalar FogNoLB.fog[96].server[0] droppedJobsQueue 342
scalar FogNoLB.fog[96].server[0] droppedJobsTimout 4008
scalar FogNoLB.fog[96].server[0] droppedJobsSLA 0
scalar FogNoLB.fog[96].server[0] droppedJobsTotal 4350
scalar FogNoLB.fog[97].dispatcher localJobs 517546
scalar FogNoLB.fog[97].dispatcher remoteJobs 0
scalar FogNoLB.fog[97].dispatcher probeQueries 0
scalar FogNoLB.fog[97].dispatcher probeAnswers 0
scalar FogNoLB.fog[97].dispatcher droppedJobsSLA 0
scalar FogNoLB.fog[97].dispatcher jobs_class_1 517546
scalar FogNoLB.fog[97].dispatcher localJobs_class_1 517546
scalar FogNoLB.fog[97].server[0] rho 0.79854339361191
scalar FogNoLB.fog[97].server[0] congestionRatio 0
scalar FogNoLB.fog[97].server[0] totalJobs 517546
scalar FogNoLB.fog[97].server[0] droppedJobsQueue 279
scalar FogNoLB.fog[97].server[0] droppedJobsTimout 4004
scalar FogNoLB.fog[97].server[0] droppedJobsSLA 0
scalar FogNoLB.fog[97].server[0] droppedJobsTotal 4283
scalar FogNoLB.fog[98].dispatcher localJobs 516548
scalar FogNoLB.fog[98].dispatcher remoteJobs 0
scalar FogNoLB.fog[98].dispatcher probeQueries 0
scalar FogNoLB.fog[98].dispatcher probeAnswers 0
scalar FogNoLB.fog[98].dispatcher droppedJobsSLA 0
scalar FogNoLB.fog[98].dispatcher jobs_class_1 516548
scalar FogNoLB.fog[98].dispatcher localJobs_class_1 516548
scalar FogNoLB.fog[98].server[0] rho 0.79673570394516
scalar FogNoLB.fog[98].server[0] congestionRatio 0
scalar FogNoLB.fog[98].server[0] totalJobs 516548
scalar FogNoLB.fog[98].server[0] droppedJobsQueue 405
scalar FogNoLB.fog[98].server[0] droppedJobsTimout 4209
scalar FogNoLB.fog[98].server[0] droppedJobsSLA 0
scalar FogNoLB.fog[98].server[0] droppedJobsTotal 4614
scalar FogNoLB.fog[99].dispatcher localJobs 517343
scalar FogNoLB.fog[99].dispatcher remoteJobs 0
scalar FogNoLB.fog[99].dispatcher probeQueries 0
scalar FogNoLB.fog[99].dispatcher probeAnswers 0
scalar FogNoLB.fog[99].dispatcher droppedJobsSLA 0
scalar FogNoLB.fog[99].dispatcher jobs_class_1 517343
scalar FogNoLB.fog[99].dispatcher localJobs_class_1 517343
scalar FogNoLB.fog[99].server[0] rho 0.79829704761505
scalar FogNoLB.fog[99].server[0] congestionRatio 0
scalar FogNoLB.fog[99].server[0] totalJobs 517343
scalar FogNoLB.fog[99].server[0] droppedJobsQueue 328
scalar FogNoLB.fog[99].server[0] droppedJobsTimout 3641
scalar FogNoLB.fog[99].server[0] droppedJobsSLA 0
scalar FogNoLB.fog[99].server[0] droppedJobsTotal 3969
scalar FogNoLB.sink avg_responseTime_1 0.047285575199925
scalar FogNoLB.sink p90_responseTime_1 0.014730680087
scalar FogNoLB.sink med_responseTime_1 0.014730680087
scalar FogNoLB.sink avg_delayTime_1 0
scalar FogNoLB.sink p90_delayTime_1 0
scalar FogNoLB.sink med_delayTime_1 0
scalar FogNoLB.sink avg_queuingTime_1 0.030585736474117
scalar FogNoLB.sink p90_queuingTime_1 0
scalar FogNoLB.sink med_queuingTime_1 0
scalar FogNoLB.sink avg_serviceTime_1 0.016699838725803
scalar FogNoLB.sink p90_serviceTime_1 0.01471428783
scalar FogNoLB.sink med_serviceTime_1 0.01471428783
scalar FogNoLB.sink avg_balancerTime_1 0
scalar FogNoLB.sink p90_balancerTime_1 0
scalar FogNoLB.sink med_balancerTime_1 0
scalar FogNoLB.sink avg_balancerCount_1 1
scalar FogNoLB.sink p90_balancerCount_1 1
scalar FogNoLB.sink med_balancerCount_1 1

