version 2
run Fog-mul_001-rho_09-thr_12-1-20190711-21:38:00-58854
attr configname Fog-mul_001-rho_09-thr_12
attr datetime 20190711-21:38:00
attr experiment Fog-mul_001-rho_09-thr_12
attr inifile FogQueueLen.ini
attr iterationvars ""
attr iterationvarsf ""
attr measurement ""
attr network FogNoLB
attr processid 58854
attr repetition 1
attr replication #1
attr resultdir results
attr runnumber 1
attr seedset 1
param FogNoLB.proctimeMul 0.01
param FogNoLB.rho 0.9
param FogNoLB.fog[*].server[*].capacity 12
param FogNoLB.nSources 100
param FogNoLB.rho 0.9
param FogNoLB.proctimeMul 1.0
param FogNoLB.source[*].appId 1
param FogNoLB.fog[*].nServers 1
param FogNoLB.fog[*].dispatcher.fanOut 1
param FogNoLB.fog[*].server[*].timeSlice -1s
param FogNoLB.fog[*].server[*].capacity 5
param FogNoLB.fog[*].server[*].fifo true
param FogNoLB.fog[*].server[*].maxServiceTime -1s

scalar FogNoLB.fog[0].dispatcher localJobs 581834
scalar FogNoLB.fog[0].dispatcher remoteJobs 0
scalar FogNoLB.fog[0].dispatcher probeQueries 0
scalar FogNoLB.fog[0].dispatcher probeAnswers 0
scalar FogNoLB.fog[0].dispatcher droppedJobsSLA 0
scalar FogNoLB.fog[0].dispatcher jobs_class_1 581834
scalar FogNoLB.fog[0].dispatcher localJobs_class_1 581834
scalar FogNoLB.fog[0].server[0] rho 0.88789999485016
scalar FogNoLB.fog[0].server[0] congestionRatio 0
scalar FogNoLB.fog[0].server[0] totalJobs 581834
scalar FogNoLB.fog[0].server[0] droppedJobsQueue 2958
scalar FogNoLB.fog[0].server[0] droppedJobsTimout 21300
scalar FogNoLB.fog[0].server[0] droppedJobsSLA 0
scalar FogNoLB.fog[0].server[0] droppedJobsTotal 24258
scalar FogNoLB.fog[1].dispatcher localJobs 581224
scalar FogNoLB.fog[1].dispatcher remoteJobs 0
scalar FogNoLB.fog[1].dispatcher probeQueries 0
scalar FogNoLB.fog[1].dispatcher probeAnswers 0
scalar FogNoLB.fog[1].dispatcher droppedJobsSLA 0
scalar FogNoLB.fog[1].dispatcher jobs_class_1 581224
scalar FogNoLB.fog[1].dispatcher localJobs_class_1 581224
scalar FogNoLB.fog[1].server[0] rho 0.8871141076088
scalar FogNoLB.fog[1].server[0] congestionRatio 0
scalar FogNoLB.fog[1].server[0] totalJobs 581224
scalar FogNoLB.fog[1].server[0] droppedJobsQueue 2828
scalar FogNoLB.fog[1].server[0] droppedJobsTimout 21810
scalar FogNoLB.fog[1].server[0] droppedJobsSLA 0
scalar FogNoLB.fog[1].server[0] droppedJobsTotal 24638
scalar FogNoLB.fog[2].dispatcher localJobs 584601
scalar FogNoLB.fog[2].dispatcher remoteJobs 0
scalar FogNoLB.fog[2].dispatcher probeQueries 0
scalar FogNoLB.fog[2].dispatcher probeAnswers 0
scalar FogNoLB.fog[2].dispatcher droppedJobsSLA 0
scalar FogNoLB.fog[2].dispatcher jobs_class_1 584601
scalar FogNoLB.fog[2].dispatcher localJobs_class_1 584601
scalar FogNoLB.fog[2].server[0] rho 0.89153915643692
scalar FogNoLB.fog[2].server[0] congestionRatio 0
scalar FogNoLB.fog[2].server[0] totalJobs 584601
scalar FogNoLB.fog[2].server[0] droppedJobsQueue 3117
scalar FogNoLB.fog[2].server[0] droppedJobsTimout 22562
scalar FogNoLB.fog[2].server[0] droppedJobsSLA 0
scalar FogNoLB.fog[2].server[0] droppedJobsTotal 25679
scalar FogNoLB.fog[3].dispatcher localJobs 582196
scalar FogNoLB.fog[3].dispatcher remoteJobs 0
scalar FogNoLB.fog[3].dispatcher probeQueries 0
scalar FogNoLB.fog[3].dispatcher probeAnswers 0
scalar FogNoLB.fog[3].dispatcher droppedJobsSLA 0
scalar FogNoLB.fog[3].dispatcher jobs_class_1 582196
scalar FogNoLB.fog[3].dispatcher localJobs_class_1 582196
scalar FogNoLB.fog[3].server[0] rho 0.88850563764572
scalar FogNoLB.fog[3].server[0] congestionRatio 0
scalar FogNoLB.fog[3].server[0] totalJobs 582196
scalar FogNoLB.fog[3].server[0] droppedJobsQueue 2975
scalar FogNoLB.fog[3].server[0] droppedJobsTimout 21136
scalar FogNoLB.fog[3].server[0] droppedJobsSLA 0
scalar FogNoLB.fog[3].server[0] droppedJobsTotal 24111
scalar FogNoLB.fog[4].dispatcher localJobs 580849
scalar FogNoLB.fog[4].dispatcher remoteJobs 0
scalar FogNoLB.fog[4].dispatcher probeQueries 0
scalar FogNoLB.fog[4].dispatcher probeAnswers 0
scalar FogNoLB.fog[4].dispatcher droppedJobsSLA 0
scalar FogNoLB.fog[4].dispatcher jobs_class_1 580849
scalar FogNoLB.fog[4].dispatcher localJobs_class_1 580849
scalar FogNoLB.fog[4].server[0] rho 0.88651978969574
scalar FogNoLB.fog[4].server[0] congestionRatio 0
scalar FogNoLB.fog[4].server[0] totalJobs 580849
scalar FogNoLB.fog[4].server[0] droppedJobsQueue 2907
scalar FogNoLB.fog[4].server[0] droppedJobsTimout 21230
scalar FogNoLB.fog[4].server[0] droppedJobsSLA 0
scalar FogNoLB.fog[4].server[0] droppedJobsTotal 24137
scalar FogNoLB.fog[5].dispatcher localJobs 581494
scalar FogNoLB.fog[5].dispatcher remoteJobs 0
scalar FogNoLB.fog[5].dispatcher probeQueries 0
scalar FogNoLB.fog[5].dispatcher probeAnswers 0
scalar FogNoLB.fog[5].dispatcher droppedJobsSLA 0
scalar FogNoLB.fog[5].dispatcher jobs_class_1 581494
scalar FogNoLB.fog[5].dispatcher localJobs_class_1 581494
scalar FogNoLB.fog[5].server[0] rho 0.88725310564041
scalar FogNoLB.fog[5].server[0] congestionRatio 0
scalar FogNoLB.fog[5].server[0] totalJobs 581494
scalar FogNoLB.fog[5].server[0] droppedJobsQueue 2992
scalar FogNoLB.fog[5].server[0] droppedJobsTimout 21407
scalar FogNoLB.fog[5].server[0] droppedJobsSLA 0
scalar FogNoLB.fog[5].server[0] droppedJobsTotal 24399
scalar FogNoLB.fog[6].dispatcher localJobs 582993
scalar FogNoLB.fog[6].dispatcher remoteJobs 0
scalar FogNoLB.fog[6].dispatcher probeQueries 0
scalar FogNoLB.fog[6].dispatcher probeAnswers 0
scalar FogNoLB.fog[6].dispatcher droppedJobsSLA 0
scalar FogNoLB.fog[6].dispatcher jobs_class_1 582993
scalar FogNoLB.fog[6].dispatcher localJobs_class_1 582993
scalar FogNoLB.fog[6].server[0] rho 0.8887003660202
scalar FogNoLB.fog[6].server[0] congestionRatio 0
scalar FogNoLB.fog[6].server[0] totalJobs 582993
scalar FogNoLB.fog[6].server[0] droppedJobsQueue 3218
scalar FogNoLB.fog[6].server[0] droppedJobsTimout 23010
scalar FogNoLB.fog[6].server[0] droppedJobsSLA 0
scalar FogNoLB.fog[6].server[0] droppedJobsTotal 26228
scalar FogNoLB.fog[7].dispatcher localJobs 583599
scalar FogNoLB.fog[7].dispatcher remoteJobs 0
scalar FogNoLB.fog[7].dispatcher probeQueries 0
scalar FogNoLB.fog[7].dispatcher probeAnswers 0
scalar FogNoLB.fog[7].dispatcher droppedJobsSLA 0
scalar FogNoLB.fog[7].dispatcher jobs_class_1 583599
scalar FogNoLB.fog[7].dispatcher localJobs_class_1 583599
scalar FogNoLB.fog[7].server[0] rho 0.88998484611511
scalar FogNoLB.fog[7].server[0] congestionRatio 0
scalar FogNoLB.fog[7].server[0] totalJobs 583599
scalar FogNoLB.fog[7].server[0] droppedJobsQueue 3086
scalar FogNoLB.fog[7].server[0] droppedJobsTimout 22627
scalar FogNoLB.fog[7].server[0] droppedJobsSLA 0
scalar FogNoLB.fog[7].server[0] droppedJobsTotal 25713
scalar FogNoLB.fog[8].dispatcher localJobs 580836
scalar FogNoLB.fog[8].dispatcher remoteJobs 0
scalar FogNoLB.fog[8].dispatcher probeQueries 0
scalar FogNoLB.fog[8].dispatcher probeAnswers 0
scalar FogNoLB.fog[8].dispatcher droppedJobsSLA 0
scalar FogNoLB.fog[8].dispatcher jobs_class_1 580836
scalar FogNoLB.fog[8].dispatcher localJobs_class_1 580836
scalar FogNoLB.fog[8].server[0] rho 0.88638418912888
scalar FogNoLB.fog[8].server[0] congestionRatio 0
scalar FogNoLB.fog[8].server[0] totalJobs 580836
scalar FogNoLB.fog[8].server[0] droppedJobsQueue 2901
scalar FogNoLB.fog[8].server[0] droppedJobsTimout 21541
scalar FogNoLB.fog[8].server[0] droppedJobsSLA 0
scalar FogNoLB.fog[8].server[0] droppedJobsTotal 24442
scalar FogNoLB.fog[9].dispatcher localJobs 582245
scalar FogNoLB.fog[9].dispatcher remoteJobs 0
scalar FogNoLB.fog[9].dispatcher probeQueries 0
scalar FogNoLB.fog[9].dispatcher probeAnswers 0
scalar FogNoLB.fog[9].dispatcher droppedJobsSLA 0
scalar FogNoLB.fog[9].dispatcher jobs_class_1 582245
scalar FogNoLB.fog[9].dispatcher localJobs_class_1 582245
scalar FogNoLB.fog[9].server[0] rho 0.88807201385498
scalar FogNoLB.fog[9].server[0] congestionRatio 0
scalar FogNoLB.fog[9].server[0] totalJobs 582245
scalar FogNoLB.fog[9].server[0] droppedJobsQueue 2998
scalar FogNoLB.fog[9].server[0] droppedJobsTimout 22002
scalar FogNoLB.fog[9].server[0] droppedJobsSLA 0
scalar FogNoLB.fog[9].server[0] droppedJobsTotal 25000
scalar FogNoLB.fog[10].dispatcher localJobs 581343
scalar FogNoLB.fog[10].dispatcher remoteJobs 0
scalar FogNoLB.fog[10].dispatcher probeQueries 0
scalar FogNoLB.fog[10].dispatcher probeAnswers 0
scalar FogNoLB.fog[10].dispatcher droppedJobsSLA 0
scalar FogNoLB.fog[10].dispatcher jobs_class_1 581343
scalar FogNoLB.fog[10].dispatcher localJobs_class_1 581343
scalar FogNoLB.fog[10].server[0] rho 0.88732236623764
scalar FogNoLB.fog[10].server[0] congestionRatio 0
scalar FogNoLB.fog[10].server[0] totalJobs 581343
scalar FogNoLB.fog[10].server[0] droppedJobsQueue 2851
scalar FogNoLB.fog[10].server[0] droppedJobsTimout 21205
scalar FogNoLB.fog[10].server[0] droppedJobsSLA 0
scalar FogNoLB.fog[10].server[0] droppedJobsTotal 24056
scalar FogNoLB.fog[11].dispatcher localJobs 580759
scalar FogNoLB.fog[11].dispatcher remoteJobs 0
scalar FogNoLB.fog[11].dispatcher probeQueries 0
scalar FogNoLB.fog[11].dispatcher probeAnswers 0
scalar FogNoLB.fog[11].dispatcher droppedJobsSLA 0
scalar FogNoLB.fog[11].dispatcher jobs_class_1 580759
scalar FogNoLB.fog[11].dispatcher localJobs_class_1 580759
scalar FogNoLB.fog[11].server[0] rho 0.88642543554306
scalar FogNoLB.fog[11].server[0] congestionRatio 0
scalar FogNoLB.fog[11].server[0] totalJobs 580759
scalar FogNoLB.fog[11].server[0] droppedJobsQueue 2896
scalar FogNoLB.fog[11].server[0] droppedJobsTimout 21056
scalar FogNoLB.fog[11].server[0] droppedJobsSLA 0
scalar FogNoLB.fog[11].server[0] droppedJobsTotal 23952
scalar FogNoLB.fog[12].dispatcher localJobs 582807
scalar FogNoLB.fog[12].dispatcher remoteJobs 0
scalar FogNoLB.fog[12].dispatcher probeQueries 0
scalar FogNoLB.fog[12].dispatcher probeAnswers 0
scalar FogNoLB.fog[12].dispatcher droppedJobsSLA 0
scalar FogNoLB.fog[12].dispatcher jobs_class_1 582807
scalar FogNoLB.fog[12].dispatcher localJobs_class_1 582807
scalar FogNoLB.fog[12].server[0] rho 0.88869577646255
scalar FogNoLB.fog[12].server[0] congestionRatio 0
scalar FogNoLB.fog[12].server[0] totalJobs 582807
scalar FogNoLB.fog[12].server[0] droppedJobsQueue 3123
scalar FogNoLB.fog[12].server[0] droppedJobsTimout 22607
scalar FogNoLB.fog[12].server[0] droppedJobsSLA 0
scalar FogNoLB.fog[12].server[0] droppedJobsTotal 25730
scalar FogNoLB.fog[13].dispatcher localJobs 583292
scalar FogNoLB.fog[13].dispatcher remoteJobs 0
scalar FogNoLB.fog[13].dispatcher probeQueries 0
scalar FogNoLB.fog[13].dispatcher probeAnswers 0
scalar FogNoLB.fog[13].dispatcher droppedJobsSLA 0
scalar FogNoLB.fog[13].dispatcher jobs_class_1 583292
scalar FogNoLB.fog[13].dispatcher localJobs_class_1 583292
scalar FogNoLB.fog[13].server[0] rho 0.88957190513611
scalar FogNoLB.fog[13].server[0] congestionRatio 0
scalar FogNoLB.fog[13].server[0] totalJobs 583292
scalar FogNoLB.fog[13].server[0] droppedJobsQueue 3054
scalar FogNoLB.fog[13].server[0] droppedJobsTimout 22542
scalar FogNoLB.fog[13].server[0] droppedJobsSLA 0
scalar FogNoLB.fog[13].server[0] droppedJobsTotal 25596
scalar FogNoLB.fog[14].dispatcher localJobs 583477
scalar FogNoLB.fog[14].dispatcher remoteJobs 0
scalar FogNoLB.fog[14].dispatcher probeQueries 0
scalar FogNoLB.fog[14].dispatcher probeAnswers 0
scalar FogNoLB.fog[14].dispatcher droppedJobsSLA 0
scalar FogNoLB.fog[14].dispatcher jobs_class_1 583477
scalar FogNoLB.fog[14].dispatcher localJobs_class_1 583477
scalar FogNoLB.fog[14].server[0] rho 0.88977581262589
scalar FogNoLB.fog[14].server[0] congestionRatio 0
scalar FogNoLB.fog[14].server[0] totalJobs 583477
scalar FogNoLB.fog[14].server[0] droppedJobsQueue 3082
scalar FogNoLB.fog[14].server[0] droppedJobsTimout 22798
scalar FogNoLB.fog[14].server[0] droppedJobsSLA 0
scalar FogNoLB.fog[14].server[0] droppedJobsTotal 25880
scalar FogNoLB.fog[15].dispatcher localJobs 581477
scalar FogNoLB.fog[15].dispatcher remoteJobs 0
scalar FogNoLB.fog[15].dispatcher probeQueries 0
scalar FogNoLB.fog[15].dispatcher probeAnswers 0
scalar FogNoLB.fog[15].dispatcher droppedJobsSLA 0
scalar FogNoLB.fog[15].dispatcher jobs_class_1 581477
scalar FogNoLB.fog[15].dispatcher localJobs_class_1 581477
scalar FogNoLB.fog[15].server[0] rho 0.88753867149353
scalar FogNoLB.fog[15].server[0] congestionRatio 0
scalar FogNoLB.fog[15].server[0] totalJobs 581477
scalar FogNoLB.fog[15].server[0] droppedJobsQueue 2864
scalar FogNoLB.fog[15].server[0] droppedJobsTimout 21147
scalar FogNoLB.fog[15].server[0] droppedJobsSLA 0
scalar FogNoLB.fog[15].server[0] droppedJobsTotal 24011
scalar FogNoLB.fog[16].dispatcher localJobs 584050
scalar FogNoLB.fog[16].dispatcher remoteJobs 0
scalar FogNoLB.fog[16].dispatcher probeQueries 0
scalar FogNoLB.fog[16].dispatcher probeAnswers 0
scalar FogNoLB.fog[16].dispatcher droppedJobsSLA 0
scalar FogNoLB.fog[16].dispatcher jobs_class_1 584050
scalar FogNoLB.fog[16].dispatcher localJobs_class_1 584050
scalar FogNoLB.fog[16].server[0] rho 0.89062368869781
scalar FogNoLB.fog[16].server[0] congestionRatio 0
scalar FogNoLB.fog[16].server[0] totalJobs 584050
scalar FogNoLB.fog[16].server[0] droppedJobsQueue 3132
scalar FogNoLB.fog[16].server[0] droppedJobsTimout 22872
scalar FogNoLB.fog[16].server[0] droppedJobsSLA 0
scalar FogNoLB.fog[16].server[0] droppedJobsTotal 26004
scalar FogNoLB.fog[17].dispatcher localJobs 581504
scalar FogNoLB.fog[17].dispatcher remoteJobs 0
scalar FogNoLB.fog[17].dispatcher probeQueries 0
scalar FogNoLB.fog[17].dispatcher probeAnswers 0
scalar FogNoLB.fog[17].dispatcher droppedJobsSLA 0
scalar FogNoLB.fog[17].dispatcher jobs_class_1 581504
scalar FogNoLB.fog[17].dispatcher localJobs_class_1 581504
scalar FogNoLB.fog[17].server[0] rho 0.88713794946671
scalar FogNoLB.fog[17].server[0] congestionRatio 0
scalar FogNoLB.fog[17].server[0] totalJobs 581504
scalar FogNoLB.fog[17].server[0] droppedJobsQueue 2985
scalar FogNoLB.fog[17].server[0] droppedJobsTimout 21505
scalar FogNoLB.fog[17].server[0] droppedJobsSLA 0
scalar FogNoLB.fog[17].server[0] droppedJobsTotal 24490
scalar FogNoLB.fog[18].dispatcher localJobs 581555
scalar FogNoLB.fog[18].dispatcher remoteJobs 0
scalar FogNoLB.fog[18].dispatcher probeQueries 0
scalar FogNoLB.fog[18].dispatcher probeAnswers 0
scalar FogNoLB.fog[18].dispatcher droppedJobsSLA 0
scalar FogNoLB.fog[18].dispatcher jobs_class_1 581555
scalar FogNoLB.fog[18].dispatcher localJobs_class_1 581555
scalar FogNoLB.fog[18].server[0] rho 0.88728559017181
scalar FogNoLB.fog[18].server[0] congestionRatio 0
scalar FogNoLB.fog[18].server[0] totalJobs 581555
scalar FogNoLB.fog[18].server[0] droppedJobsQueue 2956
scalar FogNoLB.fog[18].server[0] droppedJobsTimout 21749
scalar FogNoLB.fog[18].server[0] droppedJobsSLA 0
scalar FogNoLB.fog[18].server[0] droppedJobsTotal 24705
scalar FogNoLB.fog[19].dispatcher localJobs 582577
scalar FogNoLB.fog[19].dispatcher remoteJobs 0
scalar FogNoLB.fog[19].dispatcher probeQueries 0
scalar FogNoLB.fog[19].dispatcher probeAnswers 0
scalar FogNoLB.fog[19].dispatcher droppedJobsSLA 0
scalar FogNoLB.fog[19].dispatcher jobs_class_1 582577
scalar FogNoLB.fog[19].dispatcher localJobs_class_1 582577
scalar FogNoLB.fog[19].server[0] rho 0.8888276219368
scalar FogNoLB.fog[19].server[0] congestionRatio 0
scalar FogNoLB.fog[19].server[0] totalJobs 582577
scalar FogNoLB.fog[19].server[0] droppedJobsQueue 3011
scalar FogNoLB.fog[19].server[0] droppedJobsTimout 21765
scalar FogNoLB.fog[19].server[0] droppedJobsSLA 0
scalar FogNoLB.fog[19].server[0] droppedJobsTotal 24776
scalar FogNoLB.fog[20].dispatcher localJobs 581500
scalar FogNoLB.fog[20].dispatcher remoteJobs 0
scalar FogNoLB.fog[20].dispatcher probeQueries 0
scalar FogNoLB.fog[20].dispatcher probeAnswers 0
scalar FogNoLB.fog[20].dispatcher droppedJobsSLA 0
scalar FogNoLB.fog[20].dispatcher jobs_class_1 581500
scalar FogNoLB.fog[20].dispatcher localJobs_class_1 581500
scalar FogNoLB.fog[20].server[0] rho 0.88785755634308
scalar FogNoLB.fog[20].server[0] congestionRatio 0
scalar FogNoLB.fog[20].server[0] totalJobs 581500
scalar FogNoLB.fog[20].server[0] droppedJobsQueue 2707
scalar FogNoLB.fog[20].server[0] droppedJobsTimout 21115
scalar FogNoLB.fog[20].server[0] droppedJobsSLA 0
scalar FogNoLB.fog[20].server[0] droppedJobsTotal 23822
scalar FogNoLB.fog[21].dispatcher localJobs 582576
scalar FogNoLB.fog[21].dispatcher remoteJobs 0
scalar FogNoLB.fog[21].dispatcher probeQueries 0
scalar FogNoLB.fog[21].dispatcher probeAnswers 0
scalar FogNoLB.fog[21].dispatcher droppedJobsSLA 0
scalar FogNoLB.fog[21].dispatcher jobs_class_1 582576
scalar FogNoLB.fog[21].dispatcher localJobs_class_1 582576
scalar FogNoLB.fog[21].server[0] rho 0.88897168636322
scalar FogNoLB.fog[21].server[0] congestionRatio 0
scalar FogNoLB.fog[21].server[0] totalJobs 582576
scalar FogNoLB.fog[21].server[0] droppedJobsQueue 2920
scalar FogNoLB.fog[21].server[0] droppedJobsTimout 21438
scalar FogNoLB.fog[21].server[0] droppedJobsSLA 0
scalar FogNoLB.fog[21].server[0] droppedJobsTotal 24358
scalar FogNoLB.fog[22].dispatcher localJobs 581427
scalar FogNoLB.fog[22].dispatcher remoteJobs 0
scalar FogNoLB.fog[22].dispatcher probeQueries 0
scalar FogNoLB.fog[22].dispatcher probeAnswers 0
scalar FogNoLB.fog[22].dispatcher droppedJobsSLA 0
scalar FogNoLB.fog[22].dispatcher jobs_class_1 581427
scalar FogNoLB.fog[22].dispatcher localJobs_class_1 581427
scalar FogNoLB.fog[22].server[0] rho 0.88727849721909
scalar FogNoLB.fog[22].server[0] congestionRatio 0
scalar FogNoLB.fog[22].server[0] totalJobs 581427
scalar FogNoLB.fog[22].server[0] droppedJobsQueue 3002
scalar FogNoLB.fog[22].server[0] droppedJobsTimout 21545
scalar FogNoLB.fog[22].server[0] droppedJobsSLA 0
scalar FogNoLB.fog[22].server[0] droppedJobsTotal 24547
scalar FogNoLB.fog[23].dispatcher localJobs 580678
scalar FogNoLB.fog[23].dispatcher remoteJobs 0
scalar FogNoLB.fog[23].dispatcher probeQueries 0
scalar FogNoLB.fog[23].dispatcher probeAnswers 0
scalar FogNoLB.fog[23].dispatcher droppedJobsSLA 0
scalar FogNoLB.fog[23].dispatcher jobs_class_1 580678
scalar FogNoLB.fog[23].dispatcher localJobs_class_1 580678
scalar FogNoLB.fog[23].server[0] rho 0.88595843315125
scalar FogNoLB.fog[23].server[0] congestionRatio 0
scalar FogNoLB.fog[23].server[0] totalJobs 580678
scalar FogNoLB.fog[23].server[0] droppedJobsQueue 2979
scalar FogNoLB.fog[23].server[0] droppedJobsTimout 21804
scalar FogNoLB.fog[23].server[0] droppedJobsSLA 0
scalar FogNoLB.fog[23].server[0] droppedJobsTotal 24783
scalar FogNoLB.fog[24].dispatcher localJobs 582712
scalar FogNoLB.fog[24].dispatcher remoteJobs 0
scalar FogNoLB.fog[24].dispatcher probeQueries 0
scalar FogNoLB.fog[24].dispatcher probeAnswers 0
scalar FogNoLB.fog[24].dispatcher droppedJobsSLA 0
scalar FogNoLB.fog[24].dispatcher jobs_class_1 582712
scalar FogNoLB.fog[24].dispatcher localJobs_class_1 582712
scalar FogNoLB.fog[24].server[0] rho 0.8889085650444
scalar FogNoLB.fog[24].server[0] congestionRatio 0
scalar FogNoLB.fog[24].server[0] totalJobs 582712
scalar FogNoLB.fog[24].server[0] droppedJobsQueue 2981
scalar FogNoLB.fog[24].server[0] droppedJobsTimout 21942
scalar FogNoLB.fog[24].server[0] droppedJobsSLA 0
scalar FogNoLB.fog[24].server[0] droppedJobsTotal 24923
scalar FogNoLB.fog[25].dispatcher localJobs 582278
scalar FogNoLB.fog[25].dispatcher remoteJobs 0
scalar FogNoLB.fog[25].dispatcher probeQueries 0
scalar FogNoLB.fog[25].dispatcher probeAnswers 0
scalar FogNoLB.fog[25].dispatcher droppedJobsSLA 0
scalar FogNoLB.fog[25].dispatcher jobs_class_1 582278
scalar FogNoLB.fog[25].dispatcher localJobs_class_1 582278
scalar FogNoLB.fog[25].server[0] rho 0.88828301429749
scalar FogNoLB.fog[25].server[0] congestionRatio 0
scalar FogNoLB.fog[25].server[0] totalJobs 582278
scalar FogNoLB.fog[25].server[0] droppedJobsQueue 2929
scalar FogNoLB.fog[25].server[0] droppedJobsTimout 21994
scalar FogNoLB.fog[25].server[0] droppedJobsSLA 0
scalar FogNoLB.fog[25].server[0] droppedJobsTotal 24923
scalar FogNoLB.fog[26].dispatcher localJobs 582688
scalar FogNoLB.fog[26].dispatcher remoteJobs 0
scalar FogNoLB.fog[26].dispatcher probeQueries 0
scalar FogNoLB.fog[26].dispatcher probeAnswers 0
scalar FogNoLB.fog[26].dispatcher droppedJobsSLA 0
scalar FogNoLB.fog[26].dispatcher jobs_class_1 582688
scalar FogNoLB.fog[26].dispatcher localJobs_class_1 582688
scalar FogNoLB.fog[26].server[0] rho 0.88863283395767
scalar FogNoLB.fog[26].server[0] congestionRatio 0
scalar FogNoLB.fog[26].server[0] totalJobs 582688
scalar FogNoLB.fog[26].server[0] droppedJobsQueue 3074
scalar FogNoLB.fog[26].server[0] droppedJobsTimout 22397
scalar FogNoLB.fog[26].server[0] droppedJobsSLA 0
scalar FogNoLB.fog[26].server[0] droppedJobsTotal 25471
scalar FogNoLB.fog[27].dispatcher localJobs 581051
scalar FogNoLB.fog[27].dispatcher remoteJobs 0
scalar FogNoLB.fog[27].dispatcher probeQueries 0
scalar FogNoLB.fog[27].dispatcher probeAnswers 0
scalar FogNoLB.fog[27].dispatcher droppedJobsSLA 0
scalar FogNoLB.fog[27].dispatcher jobs_class_1 581051
scalar FogNoLB.fog[27].dispatcher localJobs_class_1 581051
scalar FogNoLB.fog[27].server[0] rho 0.88699615001678
scalar FogNoLB.fog[27].server[0] congestionRatio 0
scalar FogNoLB.fog[27].server[0] totalJobs 581051
scalar FogNoLB.fog[27].server[0] droppedJobsQueue 2813
scalar FogNoLB.fog[27].server[0] droppedJobsTimout 20849
scalar FogNoLB.fog[27].server[0] droppedJobsSLA 0
scalar FogNoLB.fog[27].server[0] droppedJobsTotal 23662
scalar FogNoLB.fog[28].dispatcher localJobs 580361
scalar FogNoLB.fog[28].dispatcher remoteJobs 0
scalar FogNoLB.fog[28].dispatcher probeQueries 0
scalar FogNoLB.fog[28].dispatcher probeAnswers 0
scalar FogNoLB.fog[28].dispatcher droppedJobsSLA 0
scalar FogNoLB.fog[28].dispatcher jobs_class_1 580361
scalar FogNoLB.fog[28].dispatcher localJobs_class_1 580361
scalar FogNoLB.fog[28].server[0] rho 0.88604187965393
scalar FogNoLB.fog[28].server[0] congestionRatio 0
scalar FogNoLB.fog[28].server[0] totalJobs 580361
scalar FogNoLB.fog[28].server[0] droppedJobsQueue 2787
scalar FogNoLB.fog[28].server[0] droppedJobsTimout 20895
scalar FogNoLB.fog[28].server[0] droppedJobsSLA 0
scalar FogNoLB.fog[28].server[0] droppedJobsTotal 23682
scalar FogNoLB.fog[29].dispatcher localJobs 582363
scalar FogNoLB.fog[29].dispatcher remoteJobs 0
scalar FogNoLB.fog[29].dispatcher probeQueries 0
scalar FogNoLB.fog[29].dispatcher probeAnswers 0
scalar FogNoLB.fog[29].dispatcher droppedJobsSLA 0
scalar FogNoLB.fog[29].dispatcher jobs_class_1 582363
scalar FogNoLB.fog[29].dispatcher localJobs_class_1 582363
scalar FogNoLB.fog[29].server[0] rho 0.88838052749634
scalar FogNoLB.fog[29].server[0] congestionRatio 0
scalar FogNoLB.fog[29].server[0] totalJobs 582363
scalar FogNoLB.fog[29].server[0] droppedJobsQueue 3036
scalar FogNoLB.fog[29].server[0] droppedJobsTimout 21940
scalar FogNoLB.fog[29].server[0] droppedJobsSLA 0
scalar FogNoLB.fog[29].server[0] droppedJobsTotal 24976
scalar FogNoLB.fog[30].dispatcher localJobs 580371
scalar FogNoLB.fog[30].dispatcher remoteJobs 0
scalar FogNoLB.fog[30].dispatcher probeQueries 0
scalar FogNoLB.fog[30].dispatcher probeAnswers 0
scalar FogNoLB.fog[30].dispatcher droppedJobsSLA 0
scalar FogNoLB.fog[30].dispatcher jobs_class_1 580371
scalar FogNoLB.fog[30].dispatcher localJobs_class_1 580371
scalar FogNoLB.fog[30].server[0] rho 0.8863297700882
scalar FogNoLB.fog[30].server[0] congestionRatio 0
scalar FogNoLB.fog[30].server[0] totalJobs 580371
scalar FogNoLB.fog[30].server[0] droppedJobsQueue 2673
scalar FogNoLB.fog[30].server[0] droppedJobsTimout 20810
scalar FogNoLB.fog[30].server[0] droppedJobsSLA 0
scalar FogNoLB.fog[30].server[0] droppedJobsTotal 23483
scalar FogNoLB.fog[31].dispatcher localJobs 581830
scalar FogNoLB.fog[31].dispatcher remoteJobs 0
scalar FogNoLB.fog[31].dispatcher probeQueries 0
scalar FogNoLB.fog[31].dispatcher probeAnswers 0
scalar FogNoLB.fog[31].dispatcher droppedJobsSLA 0
scalar FogNoLB.fog[31].dispatcher jobs_class_1 581830
scalar FogNoLB.fog[31].dispatcher localJobs_class_1 581830
scalar FogNoLB.fog[31].server[0] rho 0.8873804807663
scalar FogNoLB.fog[31].server[0] congestionRatio 0
scalar FogNoLB.fog[31].server[0] totalJobs 581830
scalar FogNoLB.fog[31].server[0] droppedJobsQueue 3095
scalar FogNoLB.fog[31].server[0] droppedJobsTimout 22033
scalar FogNoLB.fog[31].server[0] droppedJobsSLA 0
scalar FogNoLB.fog[31].server[0] droppedJobsTotal 25128
scalar FogNoLB.fog[32].dispatcher localJobs 581534
scalar FogNoLB.fog[32].dispatcher remoteJobs 0
scalar FogNoLB.fog[32].dispatcher probeQueries 0
scalar FogNoLB.fog[32].dispatcher probeAnswers 0
scalar FogNoLB.fog[32].dispatcher droppedJobsSLA 0
scalar FogNoLB.fog[32].dispatcher jobs_class_1 581534
scalar FogNoLB.fog[32].dispatcher localJobs_class_1 581534
scalar FogNoLB.fog[32].server[0] rho 0.8875218629837
scalar FogNoLB.fog[32].server[0] congestionRatio 0
scalar FogNoLB.fog[32].server[0] totalJobs 581534
scalar FogNoLB.fog[32].server[0] droppedJobsQueue 2867
scalar FogNoLB.fog[32].server[0] droppedJobsTimout 21766
scalar FogNoLB.fog[32].server[0] droppedJobsSLA 0
scalar FogNoLB.fog[32].server[0] droppedJobsTotal 24633
scalar FogNoLB.fog[33].dispatcher localJobs 580605
scalar FogNoLB.fog[33].dispatcher remoteJobs 0
scalar FogNoLB.fog[33].dispatcher probeQueries 0
scalar FogNoLB.fog[33].dispatcher probeAnswers 0
scalar FogNoLB.fog[33].dispatcher droppedJobsSLA 0
scalar FogNoLB.fog[33].dispatcher jobs_class_1 580605
scalar FogNoLB.fog[33].dispatcher localJobs_class_1 580605
scalar FogNoLB.fog[33].server[0] rho 0.88571441173553
scalar FogNoLB.fog[33].server[0] congestionRatio 0
scalar FogNoLB.fog[33].server[0] totalJobs 580605
scalar FogNoLB.fog[33].server[0] droppedJobsQueue 3025
scalar FogNoLB.fog[33].server[0] droppedJobsTimout 21693
scalar FogNoLB.fog[33].server[0] droppedJobsSLA 0
scalar FogNoLB.fog[33].server[0] droppedJobsTotal 24718
scalar FogNoLB.fog[34].dispatcher localJobs 582567
scalar FogNoLB.fog[34].dispatcher remoteJobs 0
scalar FogNoLB.fog[34].dispatcher probeQueries 0
scalar FogNoLB.fog[34].dispatcher probeAnswers 0
scalar FogNoLB.fog[34].dispatcher droppedJobsSLA 0
scalar FogNoLB.fog[34].dispatcher jobs_class_1 582567
scalar FogNoLB.fog[34].dispatcher localJobs_class_1 582567
scalar FogNoLB.fog[34].server[0] rho 0.8888002038002
scalar FogNoLB.fog[34].server[0] congestionRatio 0
scalar FogNoLB.fog[34].server[0] totalJobs 582567
scalar FogNoLB.fog[34].server[0] droppedJobsQueue 2990
scalar FogNoLB.fog[34].server[0] droppedJobsTimout 22073
scalar FogNoLB.fog[34].server[0] droppedJobsSLA 0
scalar FogNoLB.fog[34].server[0] droppedJobsTotal 25063
scalar FogNoLB.fog[35].dispatcher localJobs 582002
scalar FogNoLB.fog[35].dispatcher remoteJobs 0
scalar FogNoLB.fog[35].dispatcher probeQueries 0
scalar FogNoLB.fog[35].dispatcher probeAnswers 0
scalar FogNoLB.fog[35].dispatcher droppedJobsSLA 0
scalar FogNoLB.fog[35].dispatcher jobs_class_1 582002
scalar FogNoLB.fog[35].dispatcher localJobs_class_1 582002
scalar FogNoLB.fog[35].server[0] rho 0.88824582099915
scalar FogNoLB.fog[35].server[0] congestionRatio 0
scalar FogNoLB.fog[35].server[0] totalJobs 582002
scalar FogNoLB.fog[35].server[0] droppedJobsQueue 2892
scalar FogNoLB.fog[35].server[0] droppedJobsTimout 21498
scalar FogNoLB.fog[35].server[0] droppedJobsSLA 0
scalar FogNoLB.fog[35].server[0] droppedJobsTotal 24390
scalar FogNoLB.fog[36].dispatcher localJobs 582361
scalar FogNoLB.fog[36].dispatcher remoteJobs 0
scalar FogNoLB.fog[36].dispatcher probeQueries 0
scalar FogNoLB.fog[36].dispatcher probeAnswers 0
scalar FogNoLB.fog[36].dispatcher droppedJobsSLA 0
scalar FogNoLB.fog[36].dispatcher jobs_class_1 582361
scalar FogNoLB.fog[36].dispatcher localJobs_class_1 582361
scalar FogNoLB.fog[36].server[0] rho 0.88863450288773
scalar FogNoLB.fog[36].server[0] congestionRatio 0
scalar FogNoLB.fog[36].server[0] totalJobs 582361
scalar FogNoLB.fog[36].server[0] droppedJobsQueue 2857
scalar FogNoLB.fog[36].server[0] droppedJobsTimout 22103
scalar FogNoLB.fog[36].server[0] droppedJobsSLA 0
scalar FogNoLB.fog[36].server[0] droppedJobsTotal 24960
scalar FogNoLB.fog[37].dispatcher localJobs 581394
scalar FogNoLB.fog[37].dispatcher remoteJobs 0
scalar FogNoLB.fog[37].dispatcher probeQueries 0
scalar FogNoLB.fog[37].dispatcher probeAnswers 0
scalar FogNoLB.fog[37].dispatcher droppedJobsSLA 0
scalar FogNoLB.fog[37].dispatcher jobs_class_1 581394
scalar FogNoLB.fog[37].dispatcher localJobs_class_1 581394
scalar FogNoLB.fog[37].server[0] rho 0.88691717386246
scalar FogNoLB.fog[37].server[0] congestionRatio 0
scalar FogNoLB.fog[37].server[0] totalJobs 581394
scalar FogNoLB.fog[37].server[0] droppedJobsQueue 3002
scalar FogNoLB.fog[37].server[0] droppedJobsTimout 21881
scalar FogNoLB.fog[37].server[0] droppedJobsSLA 0
scalar FogNoLB.fog[37].server[0] droppedJobsTotal 24883
scalar FogNoLB.fog[38].dispatcher localJobs 583320
scalar FogNoLB.fog[38].dispatcher remoteJobs 0
scalar FogNoLB.fog[38].dispatcher probeQueries 0
scalar FogNoLB.fog[38].dispatcher probeAnswers 0
scalar FogNoLB.fog[38].dispatcher droppedJobsSLA 0
scalar FogNoLB.fog[38].dispatcher jobs_class_1 583320
scalar FogNoLB.fog[38].dispatcher localJobs_class_1 583320
scalar FogNoLB.fog[38].server[0] rho 0.88994795084
scalar FogNoLB.fog[38].server[0] congestionRatio 0
scalar FogNoLB.fog[38].server[0] totalJobs 583320
scalar FogNoLB.fog[38].server[0] droppedJobsQueue 2990
scalar FogNoLB.fog[38].server[0] droppedJobsTimout 22189
scalar FogNoLB.fog[38].server[0] droppedJobsSLA 0
scalar FogNoLB.fog[38].server[0] droppedJobsTotal 25179
scalar FogNoLB.fog[39].dispatcher localJobs 581599
scalar FogNoLB.fog[39].dispatcher remoteJobs 0
scalar FogNoLB.fog[39].dispatcher probeQueries 0
scalar FogNoLB.fog[39].dispatcher probeAnswers 0
scalar FogNoLB.fog[39].dispatcher droppedJobsSLA 0
scalar FogNoLB.fog[39].dispatcher jobs_class_1 581599
scalar FogNoLB.fog[39].dispatcher localJobs_class_1 581599
scalar FogNoLB.fog[39].server[0] rho 0.88791626691818
scalar FogNoLB.fog[39].server[0] congestionRatio 0
scalar FogNoLB.fog[39].server[0] totalJobs 581599
scalar FogNoLB.fog[39].server[0] droppedJobsQueue 2718
scalar FogNoLB.fog[39].server[0] droppedJobsTimout 21132
scalar FogNoLB.fog[39].server[0] droppedJobsSLA 0
scalar FogNoLB.fog[39].server[0] droppedJobsTotal 23850
scalar FogNoLB.fog[40].dispatcher localJobs 581823
scalar FogNoLB.fog[40].dispatcher remoteJobs 0
scalar FogNoLB.fog[40].dispatcher probeQueries 0
scalar FogNoLB.fog[40].dispatcher probeAnswers 0
scalar FogNoLB.fog[40].dispatcher droppedJobsSLA 0
scalar FogNoLB.fog[40].dispatcher jobs_class_1 581823
scalar FogNoLB.fog[40].dispatcher localJobs_class_1 581823
scalar FogNoLB.fog[40].server[0] rho 0.8878378868103
scalar FogNoLB.fog[40].server[0] congestionRatio 0
scalar FogNoLB.fog[40].server[0] totalJobs 581823
scalar FogNoLB.fog[40].server[0] droppedJobsQueue 2834
scalar FogNoLB.fog[40].server[0] droppedJobsTimout 21750
scalar FogNoLB.fog[40].server[0] droppedJobsSLA 0
scalar FogNoLB.fog[40].server[0] droppedJobsTotal 24584
scalar FogNoLB.fog[41].dispatcher localJobs 582108
scalar FogNoLB.fog[41].dispatcher remoteJobs 0
scalar FogNoLB.fog[41].dispatcher probeQueries 0
scalar FogNoLB.fog[41].dispatcher probeAnswers 0
scalar FogNoLB.fog[41].dispatcher droppedJobsSLA 0
scalar FogNoLB.fog[41].dispatcher jobs_class_1 582108
scalar FogNoLB.fog[41].dispatcher localJobs_class_1 582108
scalar FogNoLB.fog[41].server[0] rho 0.88821542263031
scalar FogNoLB.fog[41].server[0] congestionRatio 0
scalar FogNoLB.fog[41].server[0] totalJobs 582108
scalar FogNoLB.fog[41].server[0] droppedJobsQueue 2889
scalar FogNoLB.fog[41].server[0] droppedJobsTimout 21909
scalar FogNoLB.fog[41].server[0] droppedJobsSLA 0
scalar FogNoLB.fog[41].server[0] droppedJobsTotal 24798
scalar FogNoLB.fog[42].dispatcher localJobs 582150
scalar FogNoLB.fog[42].dispatcher remoteJobs 0
scalar FogNoLB.fog[42].dispatcher probeQueries 0
scalar FogNoLB.fog[42].dispatcher probeAnswers 0
scalar FogNoLB.fog[42].dispatcher droppedJobsSLA 0
scalar FogNoLB.fog[42].dispatcher jobs_class_1 582150
scalar FogNoLB.fog[42].dispatcher localJobs_class_1 582150
scalar FogNoLB.fog[42].server[0] rho 0.88838648796082
scalar FogNoLB.fog[42].server[0] congestionRatio 0
scalar FogNoLB.fog[42].server[0] totalJobs 582150
scalar FogNoLB.fog[42].server[0] droppedJobsQueue 2838
scalar FogNoLB.fog[42].server[0] droppedJobsTimout 21987
scalar FogNoLB.fog[42].server[0] droppedJobsSLA 0
scalar FogNoLB.fog[42].server[0] droppedJobsTotal 24825
scalar FogNoLB.fog[43].dispatcher localJobs 582196
scalar FogNoLB.fog[43].dispatcher remoteJobs 0
scalar FogNoLB.fog[43].dispatcher probeQueries 0
scalar FogNoLB.fog[43].dispatcher probeAnswers 0
scalar FogNoLB.fog[43].dispatcher droppedJobsSLA 0
scalar FogNoLB.fog[43].dispatcher jobs_class_1 582196
scalar FogNoLB.fog[43].dispatcher localJobs_class_1 582196
scalar FogNoLB.fog[43].server[0] rho 0.88843858242035
scalar FogNoLB.fog[43].server[0] congestionRatio 0
scalar FogNoLB.fog[43].server[0] totalJobs 582196
scalar FogNoLB.fog[43].server[0] droppedJobsQueue 2903
scalar FogNoLB.fog[43].server[0] droppedJobsTimout 21867
scalar FogNoLB.fog[43].server[0] droppedJobsSLA 0
scalar FogNoLB.fog[43].server[0] droppedJobsTotal 24770
scalar FogNoLB.fog[44].dispatcher localJobs 582296
scalar FogNoLB.fog[44].dispatcher remoteJobs 0
scalar FogNoLB.fog[44].dispatcher probeQueries 0
scalar FogNoLB.fog[44].dispatcher probeAnswers 0
scalar FogNoLB.fog[44].dispatcher droppedJobsSLA 0
scalar FogNoLB.fog[44].dispatcher jobs_class_1 582296
scalar FogNoLB.fog[44].dispatcher localJobs_class_1 582296
scalar FogNoLB.fog[44].server[0] rho 0.88860362768173
scalar FogNoLB.fog[44].server[0] congestionRatio 0
scalar FogNoLB.fog[44].server[0] totalJobs 582296
scalar FogNoLB.fog[44].server[0] droppedJobsQueue 2936
scalar FogNoLB.fog[44].server[0] droppedJobsTimout 21802
scalar FogNoLB.fog[44].server[0] droppedJobsSLA 0
scalar FogNoLB.fog[44].server[0] droppedJobsTotal 24738
scalar FogNoLB.fog[45].dispatcher localJobs 580557
scalar FogNoLB.fog[45].dispatcher remoteJobs 0
scalar FogNoLB.fog[45].dispatcher probeQueries 0
scalar FogNoLB.fog[45].dispatcher probeAnswers 0
scalar FogNoLB.fog[45].dispatcher droppedJobsSLA 0
scalar FogNoLB.fog[45].dispatcher jobs_class_1 580557
scalar FogNoLB.fog[45].dispatcher localJobs_class_1 580557
scalar FogNoLB.fog[45].server[0] rho 0.88612216711044
scalar FogNoLB.fog[45].server[0] congestionRatio 0
scalar FogNoLB.fog[45].server[0] totalJobs 580557
scalar FogNoLB.fog[45].server[0] droppedJobsQueue 2853
scalar FogNoLB.fog[45].server[0] droppedJobsTimout 21258
scalar FogNoLB.fog[45].server[0] droppedJobsSLA 0
scalar FogNoLB.fog[45].server[0] droppedJobsTotal 24111
scalar FogNoLB.fog[46].dispatcher localJobs 582940
scalar FogNoLB.fog[46].dispatcher remoteJobs 0
scalar FogNoLB.fog[46].dispatcher probeQueries 0
scalar FogNoLB.fog[46].dispatcher probeAnswers 0
scalar FogNoLB.fog[46].dispatcher droppedJobsSLA 0
scalar FogNoLB.fog[46].dispatcher jobs_class_1 582940
scalar FogNoLB.fog[46].dispatcher localJobs_class_1 582940
scalar FogNoLB.fog[46].server[0] rho 0.88873016834259
scalar FogNoLB.fog[46].server[0] congestionRatio 0
scalar FogNoLB.fog[46].server[0] totalJobs 582940
scalar FogNoLB.fog[46].server[0] droppedJobsQueue 3180
scalar FogNoLB.fog[46].server[0] droppedJobsTimout 23011
scalar FogNoLB.fog[46].server[0] droppedJobsSLA 0
scalar FogNoLB.fog[46].server[0] droppedJobsTotal 26191
scalar FogNoLB.fog[47].dispatcher localJobs 581254
scalar FogNoLB.fog[47].dispatcher remoteJobs 0
scalar FogNoLB.fog[47].dispatcher probeQueries 0
scalar FogNoLB.fog[47].dispatcher probeAnswers 0
scalar FogNoLB.fog[47].dispatcher droppedJobsSLA 0
scalar FogNoLB.fog[47].dispatcher jobs_class_1 581254
scalar FogNoLB.fog[47].dispatcher localJobs_class_1 581254
scalar FogNoLB.fog[47].server[0] rho 0.88704162836075
scalar FogNoLB.fog[47].server[0] congestionRatio 0
scalar FogNoLB.fog[47].server[0] totalJobs 581254
scalar FogNoLB.fog[47].server[0] droppedJobsQueue 2926
scalar FogNoLB.fog[47].server[0] droppedJobsTimout 21602
scalar FogNoLB.fog[47].server[0] droppedJobsSLA 0
scalar FogNoLB.fog[47].server[0] droppedJobsTotal 24528
scalar FogNoLB.fog[48].dispatcher localJobs 581863
scalar FogNoLB.fog[48].dispatcher remoteJobs 0
scalar FogNoLB.fog[48].dispatcher probeQueries 0
scalar FogNoLB.fog[48].dispatcher probeAnswers 0
scalar FogNoLB.fog[48].dispatcher droppedJobsSLA 0
scalar FogNoLB.fog[48].dispatcher jobs_class_1 581863
scalar FogNoLB.fog[48].dispatcher localJobs_class_1 581863
scalar FogNoLB.fog[48].server[0] rho 0.88782334327698
scalar FogNoLB.fog[48].server[0] congestionRatio 0
scalar FogNoLB.fog[48].server[0] totalJobs 581863
scalar FogNoLB.fog[48].server[0] droppedJobsQueue 2972
scalar FogNoLB.fog[48].server[0] droppedJobsTimout 21927
scalar FogNoLB.fog[48].server[0] droppedJobsSLA 0
scalar FogNoLB.fog[48].server[0] droppedJobsTotal 24899
scalar FogNoLB.fog[49].dispatcher localJobs 582452
scalar FogNoLB.fog[49].dispatcher remoteJobs 0
scalar FogNoLB.fog[49].dispatcher probeQueries 0
scalar FogNoLB.fog[49].dispatcher probeAnswers 0
scalar FogNoLB.fog[49].dispatcher droppedJobsSLA 0
scalar FogNoLB.fog[49].dispatcher jobs_class_1 582452
scalar FogNoLB.fog[49].dispatcher localJobs_class_1 582452
scalar FogNoLB.fog[49].server[0] rho 0.88822942972183
scalar FogNoLB.fog[49].server[0] congestionRatio 0
scalar FogNoLB.fog[49].server[0] totalJobs 582452
scalar FogNoLB.fog[49].server[0] droppedJobsQueue 3132
scalar FogNoLB.fog[49].server[0] droppedJobsTimout 22605
scalar FogNoLB.fog[49].server[0] droppedJobsSLA 0
scalar FogNoLB.fog[49].server[0] droppedJobsTotal 25737
scalar FogNoLB.fog[50].dispatcher localJobs 581272
scalar FogNoLB.fog[50].dispatcher remoteJobs 0
scalar FogNoLB.fog[50].dispatcher probeQueries 0
scalar FogNoLB.fog[50].dispatcher probeAnswers 0
scalar FogNoLB.fog[50].dispatcher droppedJobsSLA 0
scalar FogNoLB.fog[50].dispatcher jobs_class_1 581272
scalar FogNoLB.fog[50].dispatcher localJobs_class_1 581272
scalar FogNoLB.fog[50].server[0] rho 0.88701951503754
scalar FogNoLB.fog[50].server[0] congestionRatio 0
scalar FogNoLB.fog[50].server[0] totalJobs 581272
scalar FogNoLB.fog[50].server[0] droppedJobsQueue 2850
scalar FogNoLB.fog[50].server[0] droppedJobsTimout 21811
scalar FogNoLB.fog[50].server[0] droppedJobsSLA 0
scalar FogNoLB.fog[50].server[0] droppedJobsTotal 24661
scalar FogNoLB.fog[51].dispatcher localJobs 581608
scalar FogNoLB.fog[51].dispatcher remoteJobs 0
scalar FogNoLB.fog[51].dispatcher probeQueries 0
scalar FogNoLB.fog[51].dispatcher probeAnswers 0
scalar FogNoLB.fog[51].dispatcher droppedJobsSLA 0
scalar FogNoLB.fog[51].dispatcher jobs_class_1 581608
scalar FogNoLB.fog[51].dispatcher localJobs_class_1 581608
scalar FogNoLB.fog[51].server[0] rho 0.88745415210724
scalar FogNoLB.fog[51].server[0] congestionRatio 0
scalar FogNoLB.fog[51].server[0] totalJobs 581608
scalar FogNoLB.fog[51].server[0] droppedJobsQueue 2934
scalar FogNoLB.fog[51].server[0] droppedJobsTimout 21779
scalar FogNoLB.fog[51].server[0] droppedJobsSLA 0
scalar FogNoLB.fog[51].server[0] droppedJobsTotal 24713
scalar FogNoLB.fog[52].dispatcher localJobs 581552
scalar FogNoLB.fog[52].dispatcher remoteJobs 0
scalar FogNoLB.fog[52].dispatcher probeQueries 0
scalar FogNoLB.fog[52].dispatcher probeAnswers 0
scalar FogNoLB.fog[52].dispatcher droppedJobsSLA 0
scalar FogNoLB.fog[52].dispatcher jobs_class_1 581552
scalar FogNoLB.fog[52].dispatcher localJobs_class_1 581552
scalar FogNoLB.fog[52].server[0] rho 0.88779413700104
scalar FogNoLB.fog[52].server[0] congestionRatio 0
scalar FogNoLB.fog[52].server[0] totalJobs 581552
scalar FogNoLB.fog[52].server[0] droppedJobsQueue 2856
scalar FogNoLB.fog[52].server[0] droppedJobsTimout 20775
scalar FogNoLB.fog[52].server[0] droppedJobsSLA 0
scalar FogNoLB.fog[52].server[0] droppedJobsTotal 23631
scalar FogNoLB.fog[53].dispatcher localJobs 582537
scalar FogNoLB.fog[53].dispatcher remoteJobs 0
scalar FogNoLB.fog[53].dispatcher probeQueries 0
scalar FogNoLB.fog[53].dispatcher probeAnswers 0
scalar FogNoLB.fog[53].dispatcher droppedJobsSLA 0
scalar FogNoLB.fog[53].dispatcher jobs_class_1 582537
scalar FogNoLB.fog[53].dispatcher localJobs_class_1 582537
scalar FogNoLB.fog[53].server[0] rho 0.88850522041321
scalar FogNoLB.fog[53].server[0] congestionRatio 0
scalar FogNoLB.fog[53].server[0] totalJobs 582537
scalar FogNoLB.fog[53].server[0] droppedJobsQueue 3049
scalar FogNoLB.fog[53].server[0] droppedJobsTimout 22101
scalar FogNoLB.fog[53].server[0] droppedJobsSLA 0
scalar FogNoLB.fog[53].server[0] droppedJobsTotal 25150
scalar FogNoLB.fog[54].dispatcher localJobs 581696
scalar FogNoLB.fog[54].dispatcher remoteJobs 0
scalar FogNoLB.fog[54].dispatcher probeQueries 0
scalar FogNoLB.fog[54].dispatcher probeAnswers 0
scalar FogNoLB.fog[54].dispatcher droppedJobsSLA 0
scalar FogNoLB.fog[54].dispatcher jobs_class_1 581696
scalar FogNoLB.fog[54].dispatcher localJobs_class_1 581696
scalar FogNoLB.fog[54].server[0] rho 0.88782584667206
scalar FogNoLB.fog[54].server[0] congestionRatio 0
scalar FogNoLB.fog[54].server[0] totalJobs 581696
scalar FogNoLB.fog[54].server[0] droppedJobsQueue 2893
scalar FogNoLB.fog[54].server[0] droppedJobsTimout 21236
scalar FogNoLB.fog[54].server[0] droppedJobsSLA 0
scalar FogNoLB.fog[54].server[0] droppedJobsTotal 24129
scalar FogNoLB.fog[55].dispatcher localJobs 581647
scalar FogNoLB.fog[55].dispatcher remoteJobs 0
scalar FogNoLB.fog[55].dispatcher probeQueries 0
scalar FogNoLB.fog[55].dispatcher probeAnswers 0
scalar FogNoLB.fog[55].dispatcher droppedJobsSLA 0
scalar FogNoLB.fog[55].dispatcher jobs_class_1 581647
scalar FogNoLB.fog[55].dispatcher localJobs_class_1 581647
scalar FogNoLB.fog[55].server[0] rho 0.88803309202194
scalar FogNoLB.fog[55].server[0] congestionRatio 0
scalar FogNoLB.fog[55].server[0] totalJobs 581647
scalar FogNoLB.fog[55].server[0] droppedJobsQueue 2740
scalar FogNoLB.fog[55].server[0] droppedJobsTimout 21178
scalar FogNoLB.fog[55].server[0] droppedJobsSLA 0
scalar FogNoLB.fog[55].server[0] droppedJobsTotal 23918
scalar FogNoLB.fog[56].dispatcher localJobs 581534
scalar FogNoLB.fog[56].dispatcher remoteJobs 0
scalar FogNoLB.fog[56].dispatcher probeQueries 0
scalar FogNoLB.fog[56].dispatcher probeAnswers 0
scalar FogNoLB.fog[56].dispatcher droppedJobsSLA 0
scalar FogNoLB.fog[56].dispatcher jobs_class_1 581534
scalar FogNoLB.fog[56].dispatcher localJobs_class_1 581534
scalar FogNoLB.fog[56].server[0] rho 0.88702803850174
scalar FogNoLB.fog[56].server[0] congestionRatio 0
scalar FogNoLB.fog[56].server[0] totalJobs 581534
scalar FogNoLB.fog[56].server[0] droppedJobsQueue 3020
scalar FogNoLB.fog[56].server[0] droppedJobsTimout 22257
scalar FogNoLB.fog[56].server[0] droppedJobsSLA 0
scalar FogNoLB.fog[56].server[0] droppedJobsTotal 25277
scalar FogNoLB.fog[57].dispatcher localJobs 582598
scalar FogNoLB.fog[57].dispatcher remoteJobs 0
scalar FogNoLB.fog[57].dispatcher probeQueries 0
scalar FogNoLB.fog[57].dispatcher probeAnswers 0
scalar FogNoLB.fog[57].dispatcher droppedJobsSLA 0
scalar FogNoLB.fog[57].dispatcher jobs_class_1 582598
scalar FogNoLB.fog[57].dispatcher localJobs_class_1 582598
scalar FogNoLB.fog[57].server[0] rho 0.88882297277451
scalar FogNoLB.fog[57].server[0] congestionRatio 0
scalar FogNoLB.fog[57].server[0] totalJobs 582598
scalar FogNoLB.fog[57].server[0] droppedJobsQueue 2948
scalar FogNoLB.fog[57].server[0] droppedJobsTimout 22286
scalar FogNoLB.fog[57].server[0] droppedJobsSLA 0
scalar FogNoLB.fog[57].server[0] droppedJobsTotal 25234
scalar FogNoLB.fog[58].dispatcher localJobs 582587
scalar FogNoLB.fog[58].dispatcher remoteJobs 0
scalar FogNoLB.fog[58].dispatcher probeQueries 0
scalar FogNoLB.fog[58].dispatcher probeAnswers 0
scalar FogNoLB.fog[58].dispatcher droppedJobsSLA 0
scalar FogNoLB.fog[58].dispatcher jobs_class_1 582587
scalar FogNoLB.fog[58].dispatcher localJobs_class_1 582587
scalar FogNoLB.fog[58].server[0] rho 0.88891404867172
scalar FogNoLB.fog[58].server[0] congestionRatio 0
scalar FogNoLB.fog[58].server[0] totalJobs 582587
scalar FogNoLB.fog[58].server[0] droppedJobsQueue 2917
scalar FogNoLB.fog[58].server[0] droppedJobsTimout 21986
scalar FogNoLB.fog[58].server[0] droppedJobsSLA 0
scalar FogNoLB.fog[58].server[0] droppedJobsTotal 24903
scalar FogNoLB.fog[59].dispatcher localJobs 581495
scalar FogNoLB.fog[59].dispatcher remoteJobs 0
scalar FogNoLB.fog[59].dispatcher probeQueries 0
scalar FogNoLB.fog[59].dispatcher probeAnswers 0
scalar FogNoLB.fog[59].dispatcher droppedJobsSLA 0
scalar FogNoLB.fog[59].dispatcher jobs_class_1 581495
scalar FogNoLB.fog[59].dispatcher localJobs_class_1 581495
scalar FogNoLB.fog[59].server[0] rho 0.88752353191376
scalar FogNoLB.fog[59].server[0] congestionRatio 0
scalar FogNoLB.fog[59].server[0] totalJobs 581495
scalar FogNoLB.fog[59].server[0] droppedJobsQueue 2834
scalar FogNoLB.fog[59].server[0] droppedJobsTimout 21660
scalar FogNoLB.fog[59].server[0] droppedJobsSLA 0
scalar FogNoLB.fog[59].server[0] droppedJobsTotal 24494
scalar FogNoLB.fog[60].dispatcher localJobs 582412
scalar FogNoLB.fog[60].dispatcher remoteJobs 0
scalar FogNoLB.fog[60].dispatcher probeQueries 0
scalar FogNoLB.fog[60].dispatcher probeAnswers 0
scalar FogNoLB.fog[60].dispatcher droppedJobsSLA 0
scalar FogNoLB.fog[60].dispatcher jobs_class_1 582412
scalar FogNoLB.fog[60].dispatcher localJobs_class_1 582412
scalar FogNoLB.fog[60].server[0] rho 0.88840937614441
scalar FogNoLB.fog[60].server[0] congestionRatio 0
scalar FogNoLB.fog[60].server[0] totalJobs 582412
scalar FogNoLB.fog[60].server[0] droppedJobsQueue 2978
scalar FogNoLB.fog[60].server[0] droppedJobsTimout 22166
scalar FogNoLB.fog[60].server[0] droppedJobsSLA 0
scalar FogNoLB.fog[60].server[0] droppedJobsTotal 25144
scalar FogNoLB.fog[61].dispatcher localJobs 581259
scalar FogNoLB.fog[61].dispatcher remoteJobs 0
scalar FogNoLB.fog[61].dispatcher probeQueries 0
scalar FogNoLB.fog[61].dispatcher probeAnswers 0
scalar FogNoLB.fog[61].dispatcher droppedJobsSLA 0
scalar FogNoLB.fog[61].dispatcher jobs_class_1 581259
scalar FogNoLB.fog[61].dispatcher localJobs_class_1 581259
scalar FogNoLB.fog[61].server[0] rho 0.88739866018295
scalar FogNoLB.fog[61].server[0] congestionRatio 0
scalar FogNoLB.fog[61].server[0] totalJobs 581259
scalar FogNoLB.fog[61].server[0] droppedJobsQueue 2820
scalar FogNoLB.fog[61].server[0] droppedJobsTimout 20846
scalar FogNoLB.fog[61].server[0] droppedJobsSLA 0
scalar FogNoLB.fog[61].server[0] droppedJobsTotal 23666
scalar FogNoLB.fog[62].dispatcher localJobs 582087
scalar FogNoLB.fog[62].dispatcher remoteJobs 0
scalar FogNoLB.fog[62].dispatcher probeQueries 0
scalar FogNoLB.fog[62].dispatcher probeAnswers 0
scalar FogNoLB.fog[62].dispatcher droppedJobsSLA 0
scalar FogNoLB.fog[62].dispatcher jobs_class_1 582087
scalar FogNoLB.fog[62].dispatcher localJobs_class_1 582087
scalar FogNoLB.fog[62].server[0] rho 0.88792699575424
scalar FogNoLB.fog[62].server[0] congestionRatio 0
scalar FogNoLB.fog[62].server[0] totalJobs 582087
scalar FogNoLB.fog[62].server[0] droppedJobsQueue 3022
scalar FogNoLB.fog[62].server[0] droppedJobsTimout 22189
scalar FogNoLB.fog[62].server[0] droppedJobsSLA 0
scalar FogNoLB.fog[62].server[0] droppedJobsTotal 25211
scalar FogNoLB.fog[63].dispatcher localJobs 581526
scalar FogNoLB.fog[63].dispatcher remoteJobs 0
scalar FogNoLB.fog[63].dispatcher probeQueries 0
scalar FogNoLB.fog[63].dispatcher probeAnswers 0
scalar FogNoLB.fog[63].dispatcher droppedJobsSLA 0
scalar FogNoLB.fog[63].dispatcher jobs_class_1 581526
scalar FogNoLB.fog[63].dispatcher localJobs_class_1 581526
scalar FogNoLB.fog[63].server[0] rho 0.8873445391655
scalar FogNoLB.fog[63].server[0] congestionRatio 0
scalar FogNoLB.fog[63].server[0] totalJobs 581526
scalar FogNoLB.fog[63].server[0] droppedJobsQueue 2908
scalar FogNoLB.fog[63].server[0] droppedJobsTimout 21825
scalar FogNoLB.fog[63].server[0] droppedJobsSLA 0
scalar FogNoLB.fog[63].server[0] droppedJobsTotal 24733
scalar FogNoLB.fog[64].dispatcher localJobs 581971
scalar FogNoLB.fog[64].dispatcher remoteJobs 0
scalar FogNoLB.fog[64].dispatcher probeQueries 0
scalar FogNoLB.fog[64].dispatcher probeAnswers 0
scalar FogNoLB.fog[64].dispatcher droppedJobsSLA 0
scalar FogNoLB.fog[64].dispatcher jobs_class_1 581971
scalar FogNoLB.fog[64].dispatcher localJobs_class_1 581971
scalar FogNoLB.fog[64].server[0] rho 0.88821947574615
scalar FogNoLB.fog[64].server[0] congestionRatio 0
scalar FogNoLB.fog[64].server[0] totalJobs 581971
scalar FogNoLB.fog[64].server[0] droppedJobsQueue 2835
scalar FogNoLB.fog[64].server[0] droppedJobsTimout 21699
scalar FogNoLB.fog[64].server[0] droppedJobsSLA 0
scalar FogNoLB.fog[64].server[0] droppedJobsTotal 24534
scalar FogNoLB.fog[65].dispatcher localJobs 582165
scalar FogNoLB.fog[65].dispatcher remoteJobs 0
scalar FogNoLB.fog[65].dispatcher probeQueries 0
scalar FogNoLB.fog[65].dispatcher probeAnswers 0
scalar FogNoLB.fog[65].dispatcher droppedJobsSLA 0
scalar FogNoLB.fog[65].dispatcher jobs_class_1 582165
scalar FogNoLB.fog[65].dispatcher localJobs_class_1 582165
scalar FogNoLB.fog[65].server[0] rho 0.88836580514908
scalar FogNoLB.fog[65].server[0] congestionRatio 0
scalar FogNoLB.fog[65].server[0] totalJobs 582165
scalar FogNoLB.fog[65].server[0] droppedJobsQueue 2923
scalar FogNoLB.fog[65].server[0] droppedJobsTimout 21449
scalar FogNoLB.fog[65].server[0] droppedJobsSLA 0
scalar FogNoLB.fog[65].server[0] droppedJobsTotal 24372
scalar FogNoLB.fog[66].dispatcher localJobs 581565
scalar FogNoLB.fog[66].dispatcher remoteJobs 0
scalar FogNoLB.fog[66].dispatcher probeQueries 0
scalar FogNoLB.fog[66].dispatcher probeAnswers 0
scalar FogNoLB.fog[66].dispatcher droppedJobsSLA 0
scalar FogNoLB.fog[66].dispatcher jobs_class_1 581565
scalar FogNoLB.fog[66].dispatcher localJobs_class_1 581565
scalar FogNoLB.fog[66].server[0] rho 0.88784122467041
scalar FogNoLB.fog[66].server[0] congestionRatio 0
scalar FogNoLB.fog[66].server[0] totalJobs 581565
scalar FogNoLB.fog[66].server[0] droppedJobsQueue 2783
scalar FogNoLB.fog[66].server[0] droppedJobsTimout 21368
scalar FogNoLB.fog[66].server[0] droppedJobsSLA 0
scalar FogNoLB.fog[66].server[0] droppedJobsTotal 24151
scalar FogNoLB.fog[67].dispatcher localJobs 581828
scalar FogNoLB.fog[67].dispatcher remoteJobs 0
scalar FogNoLB.fog[67].dispatcher probeQueries 0
scalar FogNoLB.fog[67].dispatcher probeAnswers 0
scalar FogNoLB.fog[67].dispatcher droppedJobsSLA 0
scalar FogNoLB.fog[67].dispatcher jobs_class_1 581828
scalar FogNoLB.fog[67].dispatcher localJobs_class_1 581828
scalar FogNoLB.fog[67].server[0] rho 0.88809025287628
scalar FogNoLB.fog[67].server[0] congestionRatio 0
scalar FogNoLB.fog[67].server[0] totalJobs 581828
scalar FogNoLB.fog[67].server[0] droppedJobsQueue 2759
scalar FogNoLB.fog[67].server[0] droppedJobsTimout 21497
scalar FogNoLB.fog[67].server[0] droppedJobsSLA 0
scalar FogNoLB.fog[67].server[0] droppedJobsTotal 24256
scalar FogNoLB.fog[68].dispatcher localJobs 581921
scalar FogNoLB.fog[68].dispatcher remoteJobs 0
scalar FogNoLB.fog[68].dispatcher probeQueries 0
scalar FogNoLB.fog[68].dispatcher probeAnswers 0
scalar FogNoLB.fog[68].dispatcher droppedJobsSLA 0
scalar FogNoLB.fog[68].dispatcher jobs_class_1 581921
scalar FogNoLB.fog[68].dispatcher localJobs_class_1 581921
scalar FogNoLB.fog[68].server[0] rho 0.88809257745743
scalar FogNoLB.fog[68].server[0] congestionRatio 0
scalar FogNoLB.fog[68].server[0] totalJobs 581921
scalar FogNoLB.fog[68].server[0] droppedJobsQueue 2869
scalar FogNoLB.fog[68].server[0] droppedJobsTimout 21484
scalar FogNoLB.fog[68].server[0] droppedJobsSLA 0
scalar FogNoLB.fog[68].server[0] droppedJobsTotal 24353
scalar FogNoLB.fog[69].dispatcher localJobs 582762
scalar FogNoLB.fog[69].dispatcher remoteJobs 0
scalar FogNoLB.fog[69].dispatcher probeQueries 0
scalar FogNoLB.fog[69].dispatcher probeAnswers 0
scalar FogNoLB.fog[69].dispatcher droppedJobsSLA 0
scalar FogNoLB.fog[69].dispatcher jobs_class_1 582762
scalar FogNoLB.fog[69].dispatcher localJobs_class_1 582762
scalar FogNoLB.fog[69].server[0] rho 0.88913023471832
scalar FogNoLB.fog[69].server[0] congestionRatio 0
scalar FogNoLB.fog[69].server[0] totalJobs 582762
scalar FogNoLB.fog[69].server[0] droppedJobsQueue 2917
scalar FogNoLB.fog[69].server[0] droppedJobsTimout 22229
scalar FogNoLB.fog[69].server[0] droppedJobsSLA 0
scalar FogNoLB.fog[69].server[0] droppedJobsTotal 25146
scalar FogNoLB.fog[70].dispatcher localJobs 582207
scalar FogNoLB.fog[70].dispatcher remoteJobs 0
scalar FogNoLB.fog[70].dispatcher probeQueries 0
scalar FogNoLB.fog[70].dispatcher probeAnswers 0
scalar FogNoLB.fog[70].dispatcher droppedJobsSLA 0
scalar FogNoLB.fog[70].dispatcher jobs_class_1 582207
scalar FogNoLB.fog[70].dispatcher localJobs_class_1 582207
scalar FogNoLB.fog[70].server[0] rho 0.88793814182281
scalar FogNoLB.fog[70].server[0] congestionRatio 0
scalar FogNoLB.fog[70].server[0] totalJobs 582207
scalar FogNoLB.fog[70].server[0] droppedJobsQueue 2985
scalar FogNoLB.fog[70].server[0] droppedJobsTimout 22447
scalar FogNoLB.fog[70].server[0] droppedJobsSLA 0
scalar FogNoLB.fog[70].server[0] droppedJobsTotal 25432
scalar FogNoLB.fog[71].dispatcher localJobs 582601
scalar FogNoLB.fog[71].dispatcher remoteJobs 0
scalar FogNoLB.fog[71].dispatcher probeQueries 0
scalar FogNoLB.fog[71].dispatcher probeAnswers 0
scalar FogNoLB.fog[71].dispatcher droppedJobsSLA 0
scalar FogNoLB.fog[71].dispatcher jobs_class_1 582601
scalar FogNoLB.fog[71].dispatcher localJobs_class_1 582601
scalar FogNoLB.fog[71].server[0] rho 0.88849544525146
scalar FogNoLB.fog[71].server[0] congestionRatio 0
scalar FogNoLB.fog[71].server[0] totalJobs 582601
scalar FogNoLB.fog[71].server[0] droppedJobsQueue 3164
scalar FogNoLB.fog[71].server[0] droppedJobsTimout 22426
scalar FogNoLB.fog[71].server[0] droppedJobsSLA 0
scalar FogNoLB.fog[71].server[0] droppedJobsTotal 25590
scalar FogNoLB.fog[72].dispatcher localJobs 582184
scalar FogNoLB.fog[72].dispatcher remoteJobs 0
scalar FogNoLB.fog[72].dispatcher probeQueries 0
scalar FogNoLB.fog[72].dispatcher probeAnswers 0
scalar FogNoLB.fog[72].dispatcher droppedJobsSLA 0
scalar FogNoLB.fog[72].dispatcher jobs_class_1 582184
scalar FogNoLB.fog[72].dispatcher localJobs_class_1 582184
scalar FogNoLB.fog[72].server[0] rho 0.88871520757675
scalar FogNoLB.fog[72].server[0] congestionRatio 0
scalar FogNoLB.fog[72].server[0] totalJobs 582184
scalar FogNoLB.fog[72].server[0] droppedJobsQueue 2779
scalar FogNoLB.fog[72].server[0] droppedJobsTimout 21782
scalar FogNoLB.fog[72].server[0] droppedJobsSLA 0
scalar FogNoLB.fog[72].server[0] droppedJobsTotal 24561
scalar FogNoLB.fog[73].dispatcher localJobs 581820
scalar FogNoLB.fog[73].dispatcher remoteJobs 0
scalar FogNoLB.fog[73].dispatcher probeQueries 0
scalar FogNoLB.fog[73].dispatcher probeAnswers 0
scalar FogNoLB.fog[73].dispatcher droppedJobsSLA 0
scalar FogNoLB.fog[73].dispatcher jobs_class_1 581820
scalar FogNoLB.fog[73].dispatcher localJobs_class_1 581820
scalar FogNoLB.fog[73].server[0] rho 0.88770270347595
scalar FogNoLB.fog[73].server[0] congestionRatio 0
scalar FogNoLB.fog[73].server[0] totalJobs 581820
scalar FogNoLB.fog[73].server[0] droppedJobsQueue 2956
scalar FogNoLB.fog[73].server[0] droppedJobsTimout 22114
scalar FogNoLB.fog[73].server[0] droppedJobsSLA 0
scalar FogNoLB.fog[73].server[0] droppedJobsTotal 25070
scalar FogNoLB.fog[74].dispatcher localJobs 582017
scalar FogNoLB.fog[74].dispatcher remoteJobs 0
scalar FogNoLB.fog[74].dispatcher probeQueries 0
scalar FogNoLB.fog[74].dispatcher probeAnswers 0
scalar FogNoLB.fog[74].dispatcher droppedJobsSLA 0
scalar FogNoLB.fog[74].dispatcher jobs_class_1 582017
scalar FogNoLB.fog[74].dispatcher localJobs_class_1 582017
scalar FogNoLB.fog[74].server[0] rho 0.88824427127838
scalar FogNoLB.fog[74].server[0] congestionRatio 0
scalar FogNoLB.fog[74].server[0] totalJobs 582017
scalar FogNoLB.fog[74].server[0] droppedJobsQueue 2943
scalar FogNoLB.fog[74].server[0] droppedJobsTimout 21420
scalar FogNoLB.fog[74].server[0] droppedJobsSLA 0
scalar FogNoLB.fog[74].server[0] droppedJobsTotal 24363
scalar FogNoLB.fog[75].dispatcher localJobs 582815
scalar FogNoLB.fog[75].dispatcher remoteJobs 0
scalar FogNoLB.fog[75].dispatcher probeQueries 0
scalar FogNoLB.fog[75].dispatcher probeAnswers 0
scalar FogNoLB.fog[75].dispatcher droppedJobsSLA 0
scalar FogNoLB.fog[75].dispatcher jobs_class_1 582815
scalar FogNoLB.fog[75].dispatcher localJobs_class_1 582815
scalar FogNoLB.fog[75].server[0] rho 0.88951736688614
scalar FogNoLB.fog[75].server[0] congestionRatio 0
scalar FogNoLB.fog[75].server[0] totalJobs 582815
scalar FogNoLB.fog[75].server[0] droppedJobsQueue 2848
scalar FogNoLB.fog[75].server[0] droppedJobsTimout 21246
scalar FogNoLB.fog[75].server[0] droppedJobsSLA 0
scalar FogNoLB.fog[75].server[0] droppedJobsTotal 24094
scalar FogNoLB.fog[76].dispatcher localJobs 582567
scalar FogNoLB.fog[76].dispatcher remoteJobs 0
scalar FogNoLB.fog[76].dispatcher probeQueries 0
scalar FogNoLB.fog[76].dispatcher probeAnswers 0
scalar FogNoLB.fog[76].dispatcher droppedJobsSLA 0
scalar FogNoLB.fog[76].dispatcher jobs_class_1 582567
scalar FogNoLB.fog[76].dispatcher localJobs_class_1 582567
scalar FogNoLB.fog[76].server[0] rho 0.88839024305344
scalar FogNoLB.fog[76].server[0] congestionRatio 0
scalar FogNoLB.fog[76].server[0] totalJobs 582567
scalar FogNoLB.fog[76].server[0] droppedJobsQueue 3114
scalar FogNoLB.fog[76].server[0] droppedJobsTimout 22494
scalar FogNoLB.fog[76].server[0] droppedJobsSLA 0
scalar FogNoLB.fog[76].server[0] droppedJobsTotal 25608
scalar FogNoLB.fog[77].dispatcher localJobs 580364
scalar FogNoLB.fog[77].dispatcher remoteJobs 0
scalar FogNoLB.fog[77].dispatcher probeQueries 0
scalar FogNoLB.fog[77].dispatcher probeAnswers 0
scalar FogNoLB.fog[77].dispatcher droppedJobsSLA 0
scalar FogNoLB.fog[77].dispatcher jobs_class_1 580364
scalar FogNoLB.fog[77].dispatcher localJobs_class_1 580364
scalar FogNoLB.fog[77].server[0] rho 0.88565641641617
scalar FogNoLB.fog[77].server[0] congestionRatio 0
scalar FogNoLB.fog[77].server[0] totalJobs 580364
scalar FogNoLB.fog[77].server[0] droppedJobsQueue 2886
scalar FogNoLB.fog[77].server[0] droppedJobsTimout 21384
scalar FogNoLB.fog[77].server[0] droppedJobsSLA 0
scalar FogNoLB.fog[77].server[0] droppedJobsTotal 24270
scalar FogNoLB.fog[78].dispatcher localJobs 581659
scalar FogNoLB.fog[78].dispatcher remoteJobs 0
scalar FogNoLB.fog[78].dispatcher probeQueries 0
scalar FogNoLB.fog[78].dispatcher probeAnswers 0
scalar FogNoLB.fog[78].dispatcher droppedJobsSLA 0
scalar FogNoLB.fog[78].dispatcher jobs_class_1 581659
scalar FogNoLB.fog[78].dispatcher localJobs_class_1 581659
scalar FogNoLB.fog[78].server[0] rho 0.8874340057373
scalar FogNoLB.fog[78].server[0] congestionRatio 0
scalar FogNoLB.fog[78].server[0] totalJobs 581659
scalar FogNoLB.fog[78].server[0] droppedJobsQueue 2979
scalar FogNoLB.fog[78].server[0] droppedJobsTimout 21960
scalar FogNoLB.fog[78].server[0] droppedJobsSLA 0
scalar FogNoLB.fog[78].server[0] droppedJobsTotal 24939
scalar FogNoLB.fog[79].dispatcher localJobs 581123
scalar FogNoLB.fog[79].dispatcher remoteJobs 0
scalar FogNoLB.fog[79].dispatcher probeQueries 0
scalar FogNoLB.fog[79].dispatcher probeAnswers 0
scalar FogNoLB.fog[79].dispatcher droppedJobsSLA 0
scalar FogNoLB.fog[79].dispatcher jobs_class_1 581123
scalar FogNoLB.fog[79].dispatcher localJobs_class_1 581123
scalar FogNoLB.fog[79].server[0] rho 0.88691520690918
scalar FogNoLB.fog[79].server[0] congestionRatio 0
scalar FogNoLB.fog[79].server[0] totalJobs 581123
scalar FogNoLB.fog[79].server[0] droppedJobsQueue 2854
scalar FogNoLB.fog[79].server[0] droppedJobsTimout 21847
scalar FogNoLB.fog[79].server[0] droppedJobsSLA 0
scalar FogNoLB.fog[79].server[0] droppedJobsTotal 24701
scalar FogNoLB.fog[80].dispatcher localJobs 582747
scalar FogNoLB.fog[80].dispatcher remoteJobs 0
scalar FogNoLB.fog[80].dispatcher probeQueries 0
scalar FogNoLB.fog[80].dispatcher probeAnswers 0
scalar FogNoLB.fog[80].dispatcher droppedJobsSLA 0
scalar FogNoLB.fog[80].dispatcher jobs_class_1 582747
scalar FogNoLB.fog[80].dispatcher localJobs_class_1 582747
scalar FogNoLB.fog[80].server[0] rho 0.88841879367828
scalar FogNoLB.fog[80].server[0] congestionRatio 0
scalar FogNoLB.fog[80].server[0] totalJobs 582747
scalar FogNoLB.fog[80].server[0] droppedJobsQueue 3150
scalar FogNoLB.fog[80].server[0] droppedJobsTimout 22621
scalar FogNoLB.fog[80].server[0] droppedJobsSLA 0
scalar FogNoLB.fog[80].server[0] droppedJobsTotal 25771
scalar FogNoLB.fog[81].dispatcher localJobs 582812
scalar FogNoLB.fog[81].dispatcher remoteJobs 0
scalar FogNoLB.fog[81].dispatcher probeQueries 0
scalar FogNoLB.fog[81].dispatcher probeAnswers 0
scalar FogNoLB.fog[81].dispatcher droppedJobsSLA 0
scalar FogNoLB.fog[81].dispatcher jobs_class_1 582812
scalar FogNoLB.fog[81].dispatcher localJobs_class_1 582812
scalar FogNoLB.fog[81].server[0] rho 0.88898038864136
scalar FogNoLB.fog[81].server[0] congestionRatio 0
scalar FogNoLB.fog[81].server[0] totalJobs 582812
scalar FogNoLB.fog[81].server[0] droppedJobsQueue 3037
scalar FogNoLB.fog[81].server[0] droppedJobsTimout 22141
scalar FogNoLB.fog[81].server[0] droppedJobsSLA 0
scalar FogNoLB.fog[81].server[0] droppedJobsTotal 25178
scalar FogNoLB.fog[82].dispatcher localJobs 581788
scalar FogNoLB.fog[82].dispatcher remoteJobs 0
scalar FogNoLB.fog[82].dispatcher probeQueries 0
scalar FogNoLB.fog[82].dispatcher probeAnswers 0
scalar FogNoLB.fog[82].dispatcher droppedJobsSLA 0
scalar FogNoLB.fog[82].dispatcher jobs_class_1 581788
scalar FogNoLB.fog[82].dispatcher localJobs_class_1 581788
scalar FogNoLB.fog[82].server[0] rho 0.88769108057022
scalar FogNoLB.fog[82].server[0] congestionRatio 0
scalar FogNoLB.fog[82].server[0] totalJobs 581788
scalar FogNoLB.fog[82].server[0] droppedJobsQueue 2982
scalar FogNoLB.fog[82].server[0] droppedJobsTimout 21703
scalar FogNoLB.fog[82].server[0] droppedJobsSLA 0
scalar FogNoLB.fog[82].server[0] droppedJobsTotal 24685
scalar FogNoLB.fog[83].dispatcher localJobs 582658
scalar FogNoLB.fog[83].dispatcher remoteJobs 0
scalar FogNoLB.fog[83].dispatcher probeQueries 0
scalar FogNoLB.fog[83].dispatcher probeAnswers 0
scalar FogNoLB.fog[83].dispatcher droppedJobsSLA 0
scalar FogNoLB.fog[83].dispatcher jobs_class_1 582658
scalar FogNoLB.fog[83].dispatcher localJobs_class_1 582658
scalar FogNoLB.fog[83].server[0] rho 0.889055788517
scalar FogNoLB.fog[83].server[0] congestionRatio 0
scalar FogNoLB.fog[83].server[0] totalJobs 582658
scalar FogNoLB.fog[83].server[0] droppedJobsQueue 2879
scalar FogNoLB.fog[83].server[0] droppedJobsTimout 21739
scalar FogNoLB.fog[83].server[0] droppedJobsSLA 0
scalar FogNoLB.fog[83].server[0] droppedJobsTotal 24618
scalar FogNoLB.fog[84].dispatcher localJobs 582387
scalar FogNoLB.fog[84].dispatcher remoteJobs 0
scalar FogNoLB.fog[84].dispatcher probeQueries 0
scalar FogNoLB.fog[84].dispatcher probeAnswers 0
scalar FogNoLB.fog[84].dispatcher droppedJobsSLA 0
scalar FogNoLB.fog[84].dispatcher jobs_class_1 582387
scalar FogNoLB.fog[84].dispatcher localJobs_class_1 582387
scalar FogNoLB.fog[84].server[0] rho 0.88866585493088
scalar FogNoLB.fog[84].server[0] congestionRatio 0
scalar FogNoLB.fog[84].server[0] totalJobs 582387
scalar FogNoLB.fog[84].server[0] droppedJobsQueue 2830
scalar FogNoLB.fog[84].server[0] droppedJobsTimout 22015
scalar FogNoLB.fog[84].server[0] droppedJobsSLA 0
scalar FogNoLB.fog[84].server[0] droppedJobsTotal 24845
scalar FogNoLB.fog[85].dispatcher localJobs 582721
scalar FogNoLB.fog[85].dispatcher remoteJobs 0
scalar FogNoLB.fog[85].dispatcher probeQueries 0
scalar FogNoLB.fog[85].dispatcher probeAnswers 0
scalar FogNoLB.fog[85].dispatcher droppedJobsSLA 0
scalar FogNoLB.fog[85].dispatcher jobs_class_1 582721
scalar FogNoLB.fog[85].dispatcher localJobs_class_1 582721
scalar FogNoLB.fog[85].server[0] rho 0.88867086172104
scalar FogNoLB.fog[85].server[0] congestionRatio 0
scalar FogNoLB.fog[85].server[0] totalJobs 582721
scalar FogNoLB.fog[85].server[0] droppedJobsQueue 3036
scalar FogNoLB.fog[85].server[0] droppedJobsTimout 22716
scalar FogNoLB.fog[85].server[0] droppedJobsSLA 0
scalar FogNoLB.fog[85].server[0] droppedJobsTotal 25752
scalar FogNoLB.fog[86].dispatcher localJobs 582799
scalar FogNoLB.fog[86].dispatcher remoteJobs 0
scalar FogNoLB.fog[86].dispatcher probeQueries 0
scalar FogNoLB.fog[86].dispatcher probeAnswers 0
scalar FogNoLB.fog[86].dispatcher droppedJobsSLA 0
scalar FogNoLB.fog[86].dispatcher jobs_class_1 582799
scalar FogNoLB.fog[86].dispatcher localJobs_class_1 582799
scalar FogNoLB.fog[86].server[0] rho 0.88840764760971
scalar FogNoLB.fog[86].server[0] congestionRatio 0
scalar FogNoLB.fog[86].server[0] totalJobs 582799
scalar FogNoLB.fog[86].server[0] droppedJobsQueue 3187
scalar FogNoLB.fog[86].server[0] droppedJobsTimout 23204
scalar FogNoLB.fog[86].server[0] droppedJobsSLA 0
scalar FogNoLB.fog[86].server[0] droppedJobsTotal 26391
scalar FogNoLB.fog[87].dispatcher localJobs 581558
scalar FogNoLB.fog[87].dispatcher remoteJobs 0
scalar FogNoLB.fog[87].dispatcher probeQueries 0
scalar FogNoLB.fog[87].dispatcher probeAnswers 0
scalar FogNoLB.fog[87].dispatcher droppedJobsSLA 0
scalar FogNoLB.fog[87].dispatcher jobs_class_1 581558
scalar FogNoLB.fog[87].dispatcher localJobs_class_1 581558
scalar FogNoLB.fog[87].server[0] rho 0.88760060071945
scalar FogNoLB.fog[87].server[0] congestionRatio 0
scalar FogNoLB.fog[87].server[0] totalJobs 581558
scalar FogNoLB.fog[87].server[0] droppedJobsQueue 2825
scalar FogNoLB.fog[87].server[0] droppedJobsTimout 21686
scalar FogNoLB.fog[87].server[0] droppedJobsSLA 0
scalar FogNoLB.fog[87].server[0] droppedJobsTotal 24511
scalar FogNoLB.fog[88].dispatcher localJobs 581537
scalar FogNoLB.fog[88].dispatcher remoteJobs 0
scalar FogNoLB.fog[88].dispatcher probeQueries 0
scalar FogNoLB.fog[88].dispatcher probeAnswers 0
scalar FogNoLB.fog[88].dispatcher droppedJobsSLA 0
scalar FogNoLB.fog[88].dispatcher jobs_class_1 581537
scalar FogNoLB.fog[88].dispatcher localJobs_class_1 581537
scalar FogNoLB.fog[88].server[0] rho 0.88779199123383
scalar FogNoLB.fog[88].server[0] congestionRatio 0
scalar FogNoLB.fog[88].server[0] totalJobs 581537
scalar FogNoLB.fog[88].server[0] droppedJobsQueue 2836
scalar FogNoLB.fog[88].server[0] droppedJobsTimout 21172
scalar FogNoLB.fog[88].server[0] droppedJobsSLA 0
scalar FogNoLB.fog[88].server[0] droppedJobsTotal 24008
scalar FogNoLB.fog[89].dispatcher localJobs 582772
scalar FogNoLB.fog[89].dispatcher remoteJobs 0
scalar FogNoLB.fog[89].dispatcher probeQueries 0
scalar FogNoLB.fog[89].dispatcher probeAnswers 0
scalar FogNoLB.fog[89].dispatcher droppedJobsSLA 0
scalar FogNoLB.fog[89].dispatcher jobs_class_1 582772
scalar FogNoLB.fog[89].dispatcher localJobs_class_1 582772
scalar FogNoLB.fog[89].server[0] rho 0.88878351449966
scalar FogNoLB.fog[89].server[0] congestionRatio 0
scalar FogNoLB.fog[89].server[0] totalJobs 582772
scalar FogNoLB.fog[89].server[0] droppedJobsQueue 3064
scalar FogNoLB.fog[89].server[0] droppedJobsTimout 22526
scalar FogNoLB.fog[89].server[0] droppedJobsSLA 0
scalar FogNoLB.fog[89].server[0] droppedJobsTotal 25590
scalar FogNoLB.fog[90].dispatcher localJobs 582081
scalar FogNoLB.fog[90].dispatcher remoteJobs 0
scalar FogNoLB.fog[90].dispatcher probeQueries 0
scalar FogNoLB.fog[90].dispatcher probeAnswers 0
scalar FogNoLB.fog[90].dispatcher droppedJobsSLA 0
scalar FogNoLB.fog[90].dispatcher jobs_class_1 582081
scalar FogNoLB.fog[90].dispatcher localJobs_class_1 582081
scalar FogNoLB.fog[90].server[0] rho 0.88771432638168
scalar FogNoLB.fog[90].server[0] congestionRatio 0
scalar FogNoLB.fog[90].server[0] totalJobs 582081
scalar FogNoLB.fog[90].server[0] droppedJobsQueue 3130
scalar FogNoLB.fog[90].server[0] droppedJobsTimout 22135
scalar FogNoLB.fog[90].server[0] droppedJobsSLA 0
scalar FogNoLB.fog[90].server[0] droppedJobsTotal 25265
scalar FogNoLB.fog[91].dispatcher localJobs 582879
scalar FogNoLB.fog[91].dispatcher remoteJobs 0
scalar FogNoLB.fog[91].dispatcher probeQueries 0
scalar FogNoLB.fog[91].dispatcher probeAnswers 0
scalar FogNoLB.fog[91].dispatcher droppedJobsSLA 0
scalar FogNoLB.fog[91].dispatcher jobs_class_1 582879
scalar FogNoLB.fog[91].dispatcher localJobs_class_1 582879
scalar FogNoLB.fog[91].server[0] rho 0.88940918445587
scalar FogNoLB.fog[91].server[0] congestionRatio 0
scalar FogNoLB.fog[91].server[0] totalJobs 582879
scalar FogNoLB.fog[91].server[0] droppedJobsQueue 2952
scalar FogNoLB.fog[91].server[0] droppedJobsTimout 21451
scalar FogNoLB.fog[91].server[0] droppedJobsSLA 0
scalar FogNoLB.fog[91].server[0] droppedJobsTotal 24403
scalar FogNoLB.fog[92].dispatcher localJobs 581978
scalar FogNoLB.fog[92].dispatcher remoteJobs 0
scalar FogNoLB.fog[92].dispatcher probeQueries 0
scalar FogNoLB.fog[92].dispatcher probeAnswers 0
scalar FogNoLB.fog[92].dispatcher droppedJobsSLA 0
scalar FogNoLB.fog[92].dispatcher jobs_class_1 581978
scalar FogNoLB.fog[92].dispatcher localJobs_class_1 581978
scalar FogNoLB.fog[92].server[0] rho 0.88777315616608
scalar FogNoLB.fog[92].server[0] congestionRatio 0
scalar FogNoLB.fog[92].server[0] totalJobs 581978
scalar FogNoLB.fog[92].server[0] droppedJobsQueue 3052
scalar FogNoLB.fog[92].server[0] droppedJobsTimout 21917
scalar FogNoLB.fog[92].server[0] droppedJobsSLA 0
scalar FogNoLB.fog[92].server[0] droppedJobsTotal 24969
scalar FogNoLB.fog[93].dispatcher localJobs 582065
scalar FogNoLB.fog[93].dispatcher remoteJobs 0
scalar FogNoLB.fog[93].dispatcher probeQueries 0
scalar FogNoLB.fog[93].dispatcher probeAnswers 0
scalar FogNoLB.fog[93].dispatcher droppedJobsSLA 0
scalar FogNoLB.fog[93].dispatcher jobs_class_1 582065
scalar FogNoLB.fog[93].dispatcher localJobs_class_1 582065
scalar FogNoLB.fog[93].server[0] rho 0.88835865259171
scalar FogNoLB.fog[93].server[0] congestionRatio 0
scalar FogNoLB.fog[93].server[0] totalJobs 582065
scalar FogNoLB.fog[93].server[0] droppedJobsQueue 2867
scalar FogNoLB.fog[93].server[0] droppedJobsTimout 21761
scalar FogNoLB.fog[93].server[0] droppedJobsSLA 0
scalar FogNoLB.fog[93].server[0] droppedJobsTotal 24628
scalar FogNoLB.fog[94].dispatcher localJobs 581438
scalar FogNoLB.fog[94].dispatcher remoteJobs 0
scalar FogNoLB.fog[94].dispatcher probeQueries 0
scalar FogNoLB.fog[94].dispatcher probeAnswers 0
scalar FogNoLB.fog[94].dispatcher droppedJobsSLA 0
scalar FogNoLB.fog[94].dispatcher jobs_class_1 581438
scalar FogNoLB.fog[94].dispatcher localJobs_class_1 581438
scalar FogNoLB.fog[94].server[0] rho 0.88745820522308
scalar FogNoLB.fog[94].server[0] congestionRatio 0
scalar FogNoLB.fog[94].server[0] totalJobs 581438
scalar FogNoLB.fog[94].server[0] droppedJobsQueue 2856
scalar FogNoLB.fog[94].server[0] droppedJobsTimout 21256
scalar FogNoLB.fog[94].server[0] droppedJobsSLA 0
scalar FogNoLB.fog[94].server[0] droppedJobsTotal 24112
scalar FogNoLB.fog[95].dispatcher localJobs 581963
scalar FogNoLB.fog[95].dispatcher remoteJobs 0
scalar FogNoLB.fog[95].dispatcher probeQueries 0
scalar FogNoLB.fog[95].dispatcher probeAnswers 0
scalar FogNoLB.fog[95].dispatcher droppedJobsSLA 0
scalar FogNoLB.fog[95].dispatcher jobs_class_1 581963
scalar FogNoLB.fog[95].dispatcher localJobs_class_1 581963
scalar FogNoLB.fog[95].server[0] rho 0.88803452253342
scalar FogNoLB.fog[95].server[0] congestionRatio 0
scalar FogNoLB.fog[95].server[0] totalJobs 581963
scalar FogNoLB.fog[95].server[0] droppedJobsQueue 2861
scalar FogNoLB.fog[95].server[0] droppedJobsTimout 22003
scalar FogNoLB.fog[95].server[0] droppedJobsSLA 0
scalar FogNoLB.fog[95].server[0] droppedJobsTotal 24864
scalar FogNoLB.fog[96].dispatcher localJobs 583163
scalar FogNoLB.fog[96].dispatcher remoteJobs 0
scalar FogNoLB.fog[96].dispatcher probeQueries 0
scalar FogNoLB.fog[96].dispatcher probeAnswers 0
scalar FogNoLB.fog[96].dispatcher droppedJobsSLA 0
scalar FogNoLB.fog[96].dispatcher jobs_class_1 583163
scalar FogNoLB.fog[96].dispatcher localJobs_class_1 583163
scalar FogNoLB.fog[96].server[0] rho 0.88951992988586
scalar FogNoLB.fog[96].server[0] congestionRatio 0
scalar FogNoLB.fog[96].server[0] totalJobs 583163
scalar FogNoLB.fog[96].server[0] droppedJobsQueue 2997
scalar FogNoLB.fog[96].server[0] droppedJobsTimout 22694
scalar FogNoLB.fog[96].server[0] droppedJobsSLA 0
scalar FogNoLB.fog[96].server[0] droppedJobsTotal 25691
scalar FogNoLB.fog[97].dispatcher localJobs 581856
scalar FogNoLB.fog[97].dispatcher remoteJobs 0
scalar FogNoLB.fog[97].dispatcher probeQueries 0
scalar FogNoLB.fog[97].dispatcher probeAnswers 0
scalar FogNoLB.fog[97].dispatcher droppedJobsSLA 0
scalar FogNoLB.fog[97].dispatcher jobs_class_1 581856
scalar FogNoLB.fog[97].dispatcher localJobs_class_1 581856
scalar FogNoLB.fog[97].server[0] rho 0.88775223493576
scalar FogNoLB.fog[97].server[0] congestionRatio 0
scalar FogNoLB.fog[97].server[0] totalJobs 581856
scalar FogNoLB.fog[97].server[0] droppedJobsQueue 2981
scalar FogNoLB.fog[97].server[0] droppedJobsTimout 21643
scalar FogNoLB.fog[97].server[0] droppedJobsSLA 0
scalar FogNoLB.fog[97].server[0] droppedJobsTotal 24624
scalar FogNoLB.fog[98].dispatcher localJobs 579516
scalar FogNoLB.fog[98].dispatcher remoteJobs 0
scalar FogNoLB.fog[98].dispatcher probeQueries 0
scalar FogNoLB.fog[98].dispatcher probeAnswers 0
scalar FogNoLB.fog[98].dispatcher droppedJobsSLA 0
scalar FogNoLB.fog[98].dispatcher jobs_class_1 579516
scalar FogNoLB.fog[98].dispatcher localJobs_class_1 579516
scalar FogNoLB.fog[98].server[0] rho 0.88476365804672
scalar FogNoLB.fog[98].server[0] congestionRatio 0
scalar FogNoLB.fog[98].server[0] totalJobs 579516
scalar FogNoLB.fog[98].server[0] droppedJobsQueue 2819
scalar FogNoLB.fog[98].server[0] droppedJobsTimout 20768
scalar FogNoLB.fog[98].server[0] droppedJobsSLA 0
scalar FogNoLB.fog[98].server[0] droppedJobsTotal 23587
scalar FogNoLB.fog[99].dispatcher localJobs 583165
scalar FogNoLB.fog[99].dispatcher remoteJobs 0
scalar FogNoLB.fog[99].dispatcher probeQueries 0
scalar FogNoLB.fog[99].dispatcher probeAnswers 0
scalar FogNoLB.fog[99].dispatcher droppedJobsSLA 0
scalar FogNoLB.fog[99].dispatcher jobs_class_1 583165
scalar FogNoLB.fog[99].dispatcher localJobs_class_1 583165
scalar FogNoLB.fog[99].server[0] rho 0.88935261964798
scalar FogNoLB.fog[99].server[0] congestionRatio 0
scalar FogNoLB.fog[99].server[0] totalJobs 583165
scalar FogNoLB.fog[99].server[0] droppedJobsQueue 3113
scalar FogNoLB.fog[99].server[0] droppedJobsTimout 22625
scalar FogNoLB.fog[99].server[0] droppedJobsSLA 0
scalar FogNoLB.fog[99].server[0] droppedJobsTotal 25738
scalar FogNoLB.sink avg_responseTime_1 0.06551949127461
scalar FogNoLB.sink p90_responseTime_1 0.014825980871
scalar FogNoLB.sink med_responseTime_1 0.014825980871
scalar FogNoLB.sink avg_delayTime_1 0
scalar FogNoLB.sink p90_delayTime_1 0
scalar FogNoLB.sink med_delayTime_1 0
scalar FogNoLB.sink avg_queuingTime_1 0.048819761767206
scalar FogNoLB.sink p90_queuingTime_1 0
scalar FogNoLB.sink med_queuingTime_1 0
scalar FogNoLB.sink avg_serviceTime_1 0.016699729507409
scalar FogNoLB.sink p90_serviceTime_1 0.014645404052
scalar FogNoLB.sink med_serviceTime_1 0.014645404052
scalar FogNoLB.sink avg_balancerTime_1 0
scalar FogNoLB.sink p90_balancerTime_1 0
scalar FogNoLB.sink med_balancerTime_1 0
scalar FogNoLB.sink avg_balancerCount_1 1
scalar FogNoLB.sink p90_balancerCount_1 1
scalar FogNoLB.sink med_balancerCount_1 1

