version 2
run Fog-mul_1-rho_02-thr_1-0-20190711-22:38:09-61741
attr configname Fog-mul_1-rho_02-thr_1
attr datetime 20190711-22:38:09
attr experiment Fog-mul_1-rho_02-thr_1
attr inifile FogQueueLen.ini
attr iterationvars ""
attr iterationvarsf ""
attr measurement ""
attr network FogNoLB
attr processid 61741
attr repetition 0
attr replication #0
attr resultdir results
attr runnumber 0
attr seedset 0
param FogNoLB.proctimeMul 1
param FogNoLB.rho 0.2
param FogNoLB.fog[*].server[*].capacity 1
param FogNoLB.nSources 100
param FogNoLB.rho 0.9
param FogNoLB.proctimeMul 1.0
param FogNoLB.source[*].appId 1
param FogNoLB.fog[*].nServers 1
param FogNoLB.fog[*].dispatcher.fanOut 1
param FogNoLB.fog[*].server[*].timeSlice -1s
param FogNoLB.fog[*].server[*].capacity 5
param FogNoLB.fog[*].server[*].fifo true
param FogNoLB.fog[*].server[*].maxServiceTime -1s

scalar FogNoLB.fog[0].dispatcher localJobs 1276
scalar FogNoLB.fog[0].dispatcher remoteJobs 0
scalar FogNoLB.fog[0].dispatcher probeQueries 0
scalar FogNoLB.fog[0].dispatcher probeAnswers 0
scalar FogNoLB.fog[0].dispatcher droppedJobsSLA 0
scalar FogNoLB.fog[0].dispatcher jobs_class_1 1276
scalar FogNoLB.fog[0].dispatcher localJobs_class_1 1276
scalar FogNoLB.fog[0].server[0] rho 0.19423617422581
scalar FogNoLB.fog[0].server[0] congestionRatio 0
scalar FogNoLB.fog[0].server[0] totalJobs 1276
scalar FogNoLB.fog[0].server[0] droppedJobsQueue 19
scalar FogNoLB.fog[0].server[0] droppedJobsTimout 0
scalar FogNoLB.fog[0].server[0] droppedJobsSLA 0
scalar FogNoLB.fog[0].server[0] droppedJobsTotal 19
scalar FogNoLB.fog[1].dispatcher localJobs 1347
scalar FogNoLB.fog[1].dispatcher remoteJobs 0
scalar FogNoLB.fog[1].dispatcher probeQueries 0
scalar FogNoLB.fog[1].dispatcher probeAnswers 0
scalar FogNoLB.fog[1].dispatcher droppedJobsSLA 0
scalar FogNoLB.fog[1].dispatcher jobs_class_1 1347
scalar FogNoLB.fog[1].dispatcher localJobs_class_1 1347
scalar FogNoLB.fog[1].server[0] rho 0.20509493350983
scalar FogNoLB.fog[1].server[0] congestionRatio 0
scalar FogNoLB.fog[1].server[0] totalJobs 1347
scalar FogNoLB.fog[1].server[0] droppedJobsQueue 21
scalar FogNoLB.fog[1].server[0] droppedJobsTimout 0
scalar FogNoLB.fog[1].server[0] droppedJobsSLA 0
scalar FogNoLB.fog[1].server[0] droppedJobsTotal 21
scalar FogNoLB.fog[2].dispatcher localJobs 1373
scalar FogNoLB.fog[2].dispatcher remoteJobs 0
scalar FogNoLB.fog[2].dispatcher probeQueries 0
scalar FogNoLB.fog[2].dispatcher probeAnswers 0
scalar FogNoLB.fog[2].dispatcher droppedJobsSLA 0
scalar FogNoLB.fog[2].dispatcher jobs_class_1 1373
scalar FogNoLB.fog[2].dispatcher localJobs_class_1 1373
scalar FogNoLB.fog[2].server[0] rho 0.20876623690128
scalar FogNoLB.fog[2].server[0] congestionRatio 0
scalar FogNoLB.fog[2].server[0] totalJobs 1373
scalar FogNoLB.fog[2].server[0] droppedJobsQueue 23
scalar FogNoLB.fog[2].server[0] droppedJobsTimout 0
scalar FogNoLB.fog[2].server[0] droppedJobsSLA 0
scalar FogNoLB.fog[2].server[0] droppedJobsTotal 23
scalar FogNoLB.fog[3].dispatcher localJobs 1315
scalar FogNoLB.fog[3].dispatcher remoteJobs 0
scalar FogNoLB.fog[3].dispatcher probeQueries 0
scalar FogNoLB.fog[3].dispatcher probeAnswers 0
scalar FogNoLB.fog[3].dispatcher droppedJobsSLA 0
scalar FogNoLB.fog[3].dispatcher jobs_class_1 1315
scalar FogNoLB.fog[3].dispatcher localJobs_class_1 1315
scalar FogNoLB.fog[3].server[0] rho 0.19949655234814
scalar FogNoLB.fog[3].server[0] congestionRatio 0
scalar FogNoLB.fog[3].server[0] totalJobs 1315
scalar FogNoLB.fog[3].server[0] droppedJobsQueue 25
scalar FogNoLB.fog[3].server[0] droppedJobsTimout 0
scalar FogNoLB.fog[3].server[0] droppedJobsSLA 0
scalar FogNoLB.fog[3].server[0] droppedJobsTotal 25
scalar FogNoLB.fog[4].dispatcher localJobs 1272
scalar FogNoLB.fog[4].dispatcher remoteJobs 0
scalar FogNoLB.fog[4].dispatcher probeQueries 0
scalar FogNoLB.fog[4].dispatcher probeAnswers 0
scalar FogNoLB.fog[4].dispatcher droppedJobsSLA 0
scalar FogNoLB.fog[4].dispatcher jobs_class_1 1272
scalar FogNoLB.fog[4].dispatcher localJobs_class_1 1272
scalar FogNoLB.fog[4].server[0] rho 0.19278989732265
scalar FogNoLB.fog[4].server[0] congestionRatio 0
scalar FogNoLB.fog[4].server[0] totalJobs 1272
scalar FogNoLB.fog[4].server[0] droppedJobsQueue 24
scalar FogNoLB.fog[4].server[0] droppedJobsTimout 0
scalar FogNoLB.fog[4].server[0] droppedJobsSLA 0
scalar FogNoLB.fog[4].server[0] droppedJobsTotal 24
scalar FogNoLB.fog[5].dispatcher localJobs 1311
scalar FogNoLB.fog[5].dispatcher remoteJobs 0
scalar FogNoLB.fog[5].dispatcher probeQueries 0
scalar FogNoLB.fog[5].dispatcher probeAnswers 0
scalar FogNoLB.fog[5].dispatcher droppedJobsSLA 0
scalar FogNoLB.fog[5].dispatcher jobs_class_1 1311
scalar FogNoLB.fog[5].dispatcher localJobs_class_1 1311
scalar FogNoLB.fog[5].server[0] rho 0.19961713254452
scalar FogNoLB.fog[5].server[0] congestionRatio 0
scalar FogNoLB.fog[5].server[0] totalJobs 1311
scalar FogNoLB.fog[5].server[0] droppedJobsQueue 20
scalar FogNoLB.fog[5].server[0] droppedJobsTimout 0
scalar FogNoLB.fog[5].server[0] droppedJobsSLA 0
scalar FogNoLB.fog[5].server[0] droppedJobsTotal 20
scalar FogNoLB.fog[6].dispatcher localJobs 1314
scalar FogNoLB.fog[6].dispatcher remoteJobs 0
scalar FogNoLB.fog[6].dispatcher probeQueries 0
scalar FogNoLB.fog[6].dispatcher probeAnswers 0
scalar FogNoLB.fog[6].dispatcher droppedJobsSLA 0
scalar FogNoLB.fog[6].dispatcher jobs_class_1 1314
scalar FogNoLB.fog[6].dispatcher localJobs_class_1 1314
scalar FogNoLB.fog[6].server[0] rho 0.19992110133171
scalar FogNoLB.fog[6].server[0] congestionRatio 0
scalar FogNoLB.fog[6].server[0] totalJobs 1314
scalar FogNoLB.fog[6].server[0] droppedJobsQueue 19
scalar FogNoLB.fog[6].server[0] droppedJobsTimout 0
scalar FogNoLB.fog[6].server[0] droppedJobsSLA 0
scalar FogNoLB.fog[6].server[0] droppedJobsTotal 19
scalar FogNoLB.fog[7].dispatcher localJobs 1314
scalar FogNoLB.fog[7].dispatcher remoteJobs 0
scalar FogNoLB.fog[7].dispatcher probeQueries 0
scalar FogNoLB.fog[7].dispatcher probeAnswers 0
scalar FogNoLB.fog[7].dispatcher droppedJobsSLA 0
scalar FogNoLB.fog[7].dispatcher jobs_class_1 1314
scalar FogNoLB.fog[7].dispatcher localJobs_class_1 1314
scalar FogNoLB.fog[7].server[0] rho 0.20083563029766
scalar FogNoLB.fog[7].server[0] congestionRatio 0
scalar FogNoLB.fog[7].server[0] totalJobs 1314
scalar FogNoLB.fog[7].server[0] droppedJobsQueue 15
scalar FogNoLB.fog[7].server[0] droppedJobsTimout 0
scalar FogNoLB.fog[7].server[0] droppedJobsSLA 0
scalar FogNoLB.fog[7].server[0] droppedJobsTotal 15
scalar FogNoLB.fog[8].dispatcher localJobs 1250
scalar FogNoLB.fog[8].dispatcher remoteJobs 0
scalar FogNoLB.fog[8].dispatcher probeQueries 0
scalar FogNoLB.fog[8].dispatcher probeAnswers 0
scalar FogNoLB.fog[8].dispatcher droppedJobsSLA 0
scalar FogNoLB.fog[8].dispatcher jobs_class_1 1250
scalar FogNoLB.fog[8].dispatcher localJobs_class_1 1250
scalar FogNoLB.fog[8].server[0] rho 0.1893568187952
scalar FogNoLB.fog[8].server[0] congestionRatio 0
scalar FogNoLB.fog[8].server[0] totalJobs 1250
scalar FogNoLB.fog[8].server[0] droppedJobsQueue 26
scalar FogNoLB.fog[8].server[0] droppedJobsTimout 0
scalar FogNoLB.fog[8].server[0] droppedJobsSLA 0
scalar FogNoLB.fog[8].server[0] droppedJobsTotal 26
scalar FogNoLB.fog[9].dispatcher localJobs 1330
scalar FogNoLB.fog[9].dispatcher remoteJobs 0
scalar FogNoLB.fog[9].dispatcher probeQueries 0
scalar FogNoLB.fog[9].dispatcher probeAnswers 0
scalar FogNoLB.fog[9].dispatcher droppedJobsSLA 0
scalar FogNoLB.fog[9].dispatcher jobs_class_1 1330
scalar FogNoLB.fog[9].dispatcher localJobs_class_1 1330
scalar FogNoLB.fog[9].server[0] rho 0.20128320157528
scalar FogNoLB.fog[9].server[0] congestionRatio 0
scalar FogNoLB.fog[9].server[0] totalJobs 1330
scalar FogNoLB.fog[9].server[0] droppedJobsQueue 29
scalar FogNoLB.fog[9].server[0] droppedJobsTimout 0
scalar FogNoLB.fog[9].server[0] droppedJobsSLA 0
scalar FogNoLB.fog[9].server[0] droppedJobsTotal 29
scalar FogNoLB.fog[10].dispatcher localJobs 1263
scalar FogNoLB.fog[10].dispatcher remoteJobs 0
scalar FogNoLB.fog[10].dispatcher probeQueries 0
scalar FogNoLB.fog[10].dispatcher probeAnswers 0
scalar FogNoLB.fog[10].dispatcher droppedJobsSLA 0
scalar FogNoLB.fog[10].dispatcher jobs_class_1 1263
scalar FogNoLB.fog[10].dispatcher localJobs_class_1 1263
scalar FogNoLB.fog[10].server[0] rho 0.19261707365513
scalar FogNoLB.fog[10].server[0] congestionRatio 0
scalar FogNoLB.fog[10].server[0] totalJobs 1263
scalar FogNoLB.fog[10].server[0] droppedJobsQueue 18
scalar FogNoLB.fog[10].server[0] droppedJobsTimout 0
scalar FogNoLB.fog[10].server[0] droppedJobsSLA 0
scalar FogNoLB.fog[10].server[0] droppedJobsTotal 18
scalar FogNoLB.fog[11].dispatcher localJobs 1298
scalar FogNoLB.fog[11].dispatcher remoteJobs 0
scalar FogNoLB.fog[11].dispatcher probeQueries 0
scalar FogNoLB.fog[11].dispatcher probeAnswers 0
scalar FogNoLB.fog[11].dispatcher droppedJobsSLA 0
scalar FogNoLB.fog[11].dispatcher jobs_class_1 1298
scalar FogNoLB.fog[11].dispatcher localJobs_class_1 1298
scalar FogNoLB.fog[11].server[0] rho 0.19755275547504
scalar FogNoLB.fog[11].server[0] congestionRatio 0
scalar FogNoLB.fog[11].server[0] totalJobs 1298
scalar FogNoLB.fog[11].server[0] droppedJobsQueue 22
scalar FogNoLB.fog[11].server[0] droppedJobsTimout 0
scalar FogNoLB.fog[11].server[0] droppedJobsSLA 0
scalar FogNoLB.fog[11].server[0] droppedJobsTotal 22
scalar FogNoLB.fog[12].dispatcher localJobs 1307
scalar FogNoLB.fog[12].dispatcher remoteJobs 0
scalar FogNoLB.fog[12].dispatcher probeQueries 0
scalar FogNoLB.fog[12].dispatcher probeAnswers 0
scalar FogNoLB.fog[12].dispatcher droppedJobsSLA 0
scalar FogNoLB.fog[12].dispatcher jobs_class_1 1307
scalar FogNoLB.fog[12].dispatcher localJobs_class_1 1307
scalar FogNoLB.fog[12].server[0] rho 0.19872395694256
scalar FogNoLB.fog[12].server[0] congestionRatio 0
scalar FogNoLB.fog[12].server[0] totalJobs 1307
scalar FogNoLB.fog[12].server[0] droppedJobsQueue 21
scalar FogNoLB.fog[12].server[0] droppedJobsTimout 0
scalar FogNoLB.fog[12].server[0] droppedJobsSLA 0
scalar FogNoLB.fog[12].server[0] droppedJobsTotal 21
scalar FogNoLB.fog[13].dispatcher localJobs 1270
scalar FogNoLB.fog[13].dispatcher remoteJobs 0
scalar FogNoLB.fog[13].dispatcher probeQueries 0
scalar FogNoLB.fog[13].dispatcher probeAnswers 0
scalar FogNoLB.fog[13].dispatcher droppedJobsSLA 0
scalar FogNoLB.fog[13].dispatcher jobs_class_1 1270
scalar FogNoLB.fog[13].dispatcher localJobs_class_1 1270
scalar FogNoLB.fog[13].server[0] rho 0.19266943633556
scalar FogNoLB.fog[13].server[0] congestionRatio 0
scalar FogNoLB.fog[13].server[0] totalJobs 1270
scalar FogNoLB.fog[13].server[0] droppedJobsQueue 24
scalar FogNoLB.fog[13].server[0] droppedJobsTimout 0
scalar FogNoLB.fog[13].server[0] droppedJobsSLA 0
scalar FogNoLB.fog[13].server[0] droppedJobsTotal 24
scalar FogNoLB.fog[14].dispatcher localJobs 1295
scalar FogNoLB.fog[14].dispatcher remoteJobs 0
scalar FogNoLB.fog[14].dispatcher probeQueries 0
scalar FogNoLB.fog[14].dispatcher probeAnswers 0
scalar FogNoLB.fog[14].dispatcher droppedJobsSLA 0
scalar FogNoLB.fog[14].dispatcher jobs_class_1 1295
scalar FogNoLB.fog[14].dispatcher localJobs_class_1 1295
scalar FogNoLB.fog[14].server[0] rho 0.19538934528828
scalar FogNoLB.fog[14].server[0] congestionRatio 0
scalar FogNoLB.fog[14].server[0] totalJobs 1295
scalar FogNoLB.fog[14].server[0] droppedJobsQueue 31
scalar FogNoLB.fog[14].server[0] droppedJobsTimout 0
scalar FogNoLB.fog[14].server[0] droppedJobsSLA 0
scalar FogNoLB.fog[14].server[0] droppedJobsTotal 31
scalar FogNoLB.fog[15].dispatcher localJobs 1347
scalar FogNoLB.fog[15].dispatcher remoteJobs 0
scalar FogNoLB.fog[15].dispatcher probeQueries 0
scalar FogNoLB.fog[15].dispatcher probeAnswers 0
scalar FogNoLB.fog[15].dispatcher droppedJobsSLA 0
scalar FogNoLB.fog[15].dispatcher jobs_class_1 1347
scalar FogNoLB.fog[15].dispatcher localJobs_class_1 1347
scalar FogNoLB.fog[15].server[0] rho 0.20436227321625
scalar FogNoLB.fog[15].server[0] congestionRatio 0
scalar FogNoLB.fog[15].server[0] totalJobs 1347
scalar FogNoLB.fog[15].server[0] droppedJobsQueue 24
scalar FogNoLB.fog[15].server[0] droppedJobsTimout 0
scalar FogNoLB.fog[15].server[0] droppedJobsSLA 0
scalar FogNoLB.fog[15].server[0] droppedJobsTotal 24
scalar FogNoLB.fog[16].dispatcher localJobs 1221
scalar FogNoLB.fog[16].dispatcher remoteJobs 0
scalar FogNoLB.fog[16].dispatcher probeQueries 0
scalar FogNoLB.fog[16].dispatcher probeAnswers 0
scalar FogNoLB.fog[16].dispatcher droppedJobsSLA 0
scalar FogNoLB.fog[16].dispatcher jobs_class_1 1221
scalar FogNoLB.fog[16].dispatcher localJobs_class_1 1221
scalar FogNoLB.fog[16].server[0] rho 0.18562948703766
scalar FogNoLB.fog[16].server[0] congestionRatio 0
scalar FogNoLB.fog[16].server[0] totalJobs 1221
scalar FogNoLB.fog[16].server[0] droppedJobsQueue 20
scalar FogNoLB.fog[16].server[0] droppedJobsTimout 0
scalar FogNoLB.fog[16].server[0] droppedJobsSLA 0
scalar FogNoLB.fog[16].server[0] droppedJobsTotal 20
scalar FogNoLB.fog[17].dispatcher localJobs 1270
scalar FogNoLB.fog[17].dispatcher remoteJobs 0
scalar FogNoLB.fog[17].dispatcher probeQueries 0
scalar FogNoLB.fog[17].dispatcher probeAnswers 0
scalar FogNoLB.fog[17].dispatcher droppedJobsSLA 0
scalar FogNoLB.fog[17].dispatcher jobs_class_1 1270
scalar FogNoLB.fog[17].dispatcher localJobs_class_1 1270
scalar FogNoLB.fog[17].server[0] rho 0.19375152885914
scalar FogNoLB.fog[17].server[0] congestionRatio 0
scalar FogNoLB.fog[17].server[0] totalJobs 1270
scalar FogNoLB.fog[17].server[0] droppedJobsQueue 17
scalar FogNoLB.fog[17].server[0] droppedJobsTimout 0
scalar FogNoLB.fog[17].server[0] droppedJobsSLA 0
scalar FogNoLB.fog[17].server[0] droppedJobsTotal 17
scalar FogNoLB.fog[18].dispatcher localJobs 1315
scalar FogNoLB.fog[18].dispatcher remoteJobs 0
scalar FogNoLB.fog[18].dispatcher probeQueries 0
scalar FogNoLB.fog[18].dispatcher probeAnswers 0
scalar FogNoLB.fog[18].dispatcher droppedJobsSLA 0
scalar FogNoLB.fog[18].dispatcher jobs_class_1 1315
scalar FogNoLB.fog[18].dispatcher localJobs_class_1 1315
scalar FogNoLB.fog[18].server[0] rho 0.19998261332512
scalar FogNoLB.fog[18].server[0] congestionRatio 0
scalar FogNoLB.fog[18].server[0] totalJobs 1315
scalar FogNoLB.fog[18].server[0] droppedJobsQueue 22
scalar FogNoLB.fog[18].server[0] droppedJobsTimout 0
scalar FogNoLB.fog[18].server[0] droppedJobsSLA 0
scalar FogNoLB.fog[18].server[0] droppedJobsTotal 22
scalar FogNoLB.fog[19].dispatcher localJobs 1282
scalar FogNoLB.fog[19].dispatcher remoteJobs 0
scalar FogNoLB.fog[19].dispatcher probeQueries 0
scalar FogNoLB.fog[19].dispatcher probeAnswers 0
scalar FogNoLB.fog[19].dispatcher droppedJobsSLA 0
scalar FogNoLB.fog[19].dispatcher jobs_class_1 1282
scalar FogNoLB.fog[19].dispatcher localJobs_class_1 1282
scalar FogNoLB.fog[19].server[0] rho 0.19460611045361
scalar FogNoLB.fog[19].server[0] congestionRatio 0
scalar FogNoLB.fog[19].server[0] totalJobs 1282
scalar FogNoLB.fog[19].server[0] droppedJobsQueue 23
scalar FogNoLB.fog[19].server[0] droppedJobsTimout 0
scalar FogNoLB.fog[19].server[0] droppedJobsSLA 0
scalar FogNoLB.fog[19].server[0] droppedJobsTotal 23
scalar FogNoLB.fog[20].dispatcher localJobs 1272
scalar FogNoLB.fog[20].dispatcher remoteJobs 0
scalar FogNoLB.fog[20].dispatcher probeQueries 0
scalar FogNoLB.fog[20].dispatcher probeAnswers 0
scalar FogNoLB.fog[20].dispatcher droppedJobsSLA 0
scalar FogNoLB.fog[20].dispatcher jobs_class_1 1272
scalar FogNoLB.fog[20].dispatcher localJobs_class_1 1272
scalar FogNoLB.fog[20].server[0] rho 0.19242088496685
scalar FogNoLB.fog[20].server[0] congestionRatio 0
scalar FogNoLB.fog[20].server[0] totalJobs 1272
scalar FogNoLB.fog[20].server[0] droppedJobsQueue 27
scalar FogNoLB.fog[20].server[0] droppedJobsTimout 0
scalar FogNoLB.fog[20].server[0] droppedJobsSLA 0
scalar FogNoLB.fog[20].server[0] droppedJobsTotal 27
scalar FogNoLB.fog[21].dispatcher localJobs 1233
scalar FogNoLB.fog[21].dispatcher remoteJobs 0
scalar FogNoLB.fog[21].dispatcher probeQueries 0
scalar FogNoLB.fog[21].dispatcher probeAnswers 0
scalar FogNoLB.fog[21].dispatcher droppedJobsSLA 0
scalar FogNoLB.fog[21].dispatcher jobs_class_1 1233
scalar FogNoLB.fog[21].dispatcher localJobs_class_1 1233
scalar FogNoLB.fog[21].server[0] rho 0.18656197190285
scalar FogNoLB.fog[21].server[0] congestionRatio 0
scalar FogNoLB.fog[21].server[0] totalJobs 1233
scalar FogNoLB.fog[21].server[0] droppedJobsQueue 27
scalar FogNoLB.fog[21].server[0] droppedJobsTimout 0
scalar FogNoLB.fog[21].server[0] droppedJobsSLA 0
scalar FogNoLB.fog[21].server[0] droppedJobsTotal 27
scalar FogNoLB.fog[22].dispatcher localJobs 1304
scalar FogNoLB.fog[22].dispatcher remoteJobs 0
scalar FogNoLB.fog[22].dispatcher probeQueries 0
scalar FogNoLB.fog[22].dispatcher probeAnswers 0
scalar FogNoLB.fog[22].dispatcher droppedJobsSLA 0
scalar FogNoLB.fog[22].dispatcher jobs_class_1 1304
scalar FogNoLB.fog[22].dispatcher localJobs_class_1 1304
scalar FogNoLB.fog[22].server[0] rho 0.19768932461739
scalar FogNoLB.fog[22].server[0] congestionRatio 0
scalar FogNoLB.fog[22].server[0] totalJobs 1304
scalar FogNoLB.fog[22].server[0] droppedJobsQueue 25
scalar FogNoLB.fog[22].server[0] droppedJobsTimout 0
scalar FogNoLB.fog[22].server[0] droppedJobsSLA 0
scalar FogNoLB.fog[22].server[0] droppedJobsTotal 25
scalar FogNoLB.fog[23].dispatcher localJobs 1239
scalar FogNoLB.fog[23].dispatcher remoteJobs 0
scalar FogNoLB.fog[23].dispatcher probeQueries 0
scalar FogNoLB.fog[23].dispatcher probeAnswers 0
scalar FogNoLB.fog[23].dispatcher droppedJobsSLA 0
scalar FogNoLB.fog[23].dispatcher jobs_class_1 1239
scalar FogNoLB.fog[23].dispatcher localJobs_class_1 1239
scalar FogNoLB.fog[23].server[0] rho 0.18881244957447
scalar FogNoLB.fog[23].server[0] congestionRatio 0
scalar FogNoLB.fog[23].server[0] totalJobs 1239
scalar FogNoLB.fog[23].server[0] droppedJobsQueue 18
scalar FogNoLB.fog[23].server[0] droppedJobsTimout 0
scalar FogNoLB.fog[23].server[0] droppedJobsSLA 0
scalar FogNoLB.fog[23].server[0] droppedJobsTotal 18
scalar FogNoLB.fog[24].dispatcher localJobs 1292
scalar FogNoLB.fog[24].dispatcher remoteJobs 0
scalar FogNoLB.fog[24].dispatcher probeQueries 0
scalar FogNoLB.fog[24].dispatcher probeAnswers 0
scalar FogNoLB.fog[24].dispatcher droppedJobsSLA 0
scalar FogNoLB.fog[24].dispatcher jobs_class_1 1292
scalar FogNoLB.fog[24].dispatcher localJobs_class_1 1292
scalar FogNoLB.fog[24].server[0] rho 0.19609707593918
scalar FogNoLB.fog[24].server[0] congestionRatio 0
scalar FogNoLB.fog[24].server[0] totalJobs 1292
scalar FogNoLB.fog[24].server[0] droppedJobsQueue 24
scalar FogNoLB.fog[24].server[0] droppedJobsTimout 0
scalar FogNoLB.fog[24].server[0] droppedJobsSLA 0
scalar FogNoLB.fog[24].server[0] droppedJobsTotal 24
scalar FogNoLB.fog[25].dispatcher localJobs 1352
scalar FogNoLB.fog[25].dispatcher remoteJobs 0
scalar FogNoLB.fog[25].dispatcher probeQueries 0
scalar FogNoLB.fog[25].dispatcher probeAnswers 0
scalar FogNoLB.fog[25].dispatcher droppedJobsSLA 0
scalar FogNoLB.fog[25].dispatcher jobs_class_1 1352
scalar FogNoLB.fog[25].dispatcher localJobs_class_1 1352
scalar FogNoLB.fog[25].server[0] rho 0.20437180995941
scalar FogNoLB.fog[25].server[0] congestionRatio 0
scalar FogNoLB.fog[25].server[0] totalJobs 1352
scalar FogNoLB.fog[25].server[0] droppedJobsQueue 29
scalar FogNoLB.fog[25].server[0] droppedJobsTimout 0
scalar FogNoLB.fog[25].server[0] droppedJobsSLA 0
scalar FogNoLB.fog[25].server[0] droppedJobsTotal 29
scalar FogNoLB.fog[26].dispatcher localJobs 1321
scalar FogNoLB.fog[26].dispatcher remoteJobs 0
scalar FogNoLB.fog[26].dispatcher probeQueries 0
scalar FogNoLB.fog[26].dispatcher probeAnswers 0
scalar FogNoLB.fog[26].dispatcher droppedJobsSLA 0
scalar FogNoLB.fog[26].dispatcher jobs_class_1 1321
scalar FogNoLB.fog[26].dispatcher localJobs_class_1 1321
scalar FogNoLB.fog[26].server[0] rho 0.19975699484348
scalar FogNoLB.fog[26].server[0] congestionRatio 0
scalar FogNoLB.fog[26].server[0] totalJobs 1321
scalar FogNoLB.fog[26].server[0] droppedJobsQueue 28
scalar FogNoLB.fog[26].server[0] droppedJobsTimout 0
scalar FogNoLB.fog[26].server[0] droppedJobsSLA 0
scalar FogNoLB.fog[26].server[0] droppedJobsTotal 28
scalar FogNoLB.fog[27].dispatcher localJobs 1285
scalar FogNoLB.fog[27].dispatcher remoteJobs 0
scalar FogNoLB.fog[27].dispatcher probeQueries 0
scalar FogNoLB.fog[27].dispatcher probeAnswers 0
scalar FogNoLB.fog[27].dispatcher droppedJobsSLA 0
scalar FogNoLB.fog[27].dispatcher jobs_class_1 1285
scalar FogNoLB.fog[27].dispatcher localJobs_class_1 1285
scalar FogNoLB.fog[27].server[0] rho 0.19518114626408
scalar FogNoLB.fog[27].server[0] congestionRatio 0
scalar FogNoLB.fog[27].server[0] totalJobs 1285
scalar FogNoLB.fog[27].server[0] droppedJobsQueue 23
scalar FogNoLB.fog[27].server[0] droppedJobsTimout 0
scalar FogNoLB.fog[27].server[0] droppedJobsSLA 0
scalar FogNoLB.fog[27].server[0] droppedJobsTotal 23
scalar FogNoLB.fog[28].dispatcher localJobs 1303
scalar FogNoLB.fog[28].dispatcher remoteJobs 0
scalar FogNoLB.fog[28].dispatcher probeQueries 0
scalar FogNoLB.fog[28].dispatcher probeAnswers 0
scalar FogNoLB.fog[28].dispatcher droppedJobsSLA 0
scalar FogNoLB.fog[28].dispatcher jobs_class_1 1303
scalar FogNoLB.fog[28].dispatcher localJobs_class_1 1303
scalar FogNoLB.fog[28].server[0] rho 0.1979131102562
scalar FogNoLB.fog[28].server[0] congestionRatio 0
scalar FogNoLB.fog[28].server[0] totalJobs 1303
scalar FogNoLB.fog[28].server[0] droppedJobsQueue 23
scalar FogNoLB.fog[28].server[0] droppedJobsTimout 0
scalar FogNoLB.fog[28].server[0] droppedJobsSLA 0
scalar FogNoLB.fog[28].server[0] droppedJobsTotal 23
scalar FogNoLB.fog[29].dispatcher localJobs 1307
scalar FogNoLB.fog[29].dispatcher remoteJobs 0
scalar FogNoLB.fog[29].dispatcher probeQueries 0
scalar FogNoLB.fog[29].dispatcher probeAnswers 0
scalar FogNoLB.fog[29].dispatcher droppedJobsSLA 0
scalar FogNoLB.fog[29].dispatcher jobs_class_1 1307
scalar FogNoLB.fog[29].dispatcher localJobs_class_1 1307
scalar FogNoLB.fog[29].server[0] rho 0.19893056154251
scalar FogNoLB.fog[29].server[0] congestionRatio 0
scalar FogNoLB.fog[29].server[0] totalJobs 1307
scalar FogNoLB.fog[29].server[0] droppedJobsQueue 21
scalar FogNoLB.fog[29].server[0] droppedJobsTimout 0
scalar FogNoLB.fog[29].server[0] droppedJobsSLA 0
scalar FogNoLB.fog[29].server[0] droppedJobsTotal 21
scalar FogNoLB.fog[30].dispatcher localJobs 1314
scalar FogNoLB.fog[30].dispatcher remoteJobs 0
scalar FogNoLB.fog[30].dispatcher probeQueries 0
scalar FogNoLB.fog[30].dispatcher probeAnswers 0
scalar FogNoLB.fog[30].dispatcher droppedJobsSLA 0
scalar FogNoLB.fog[30].dispatcher jobs_class_1 1314
scalar FogNoLB.fog[30].dispatcher localJobs_class_1 1314
scalar FogNoLB.fog[30].server[0] rho 0.19797979295254
scalar FogNoLB.fog[30].server[0] congestionRatio 0
scalar FogNoLB.fog[30].server[0] totalJobs 1314
scalar FogNoLB.fog[30].server[0] droppedJobsQueue 33
scalar FogNoLB.fog[30].server[0] droppedJobsTimout 0
scalar FogNoLB.fog[30].server[0] droppedJobsSLA 0
scalar FogNoLB.fog[30].server[0] droppedJobsTotal 33
scalar FogNoLB.fog[31].dispatcher localJobs 1330
scalar FogNoLB.fog[31].dispatcher remoteJobs 0
scalar FogNoLB.fog[31].dispatcher probeQueries 0
scalar FogNoLB.fog[31].dispatcher probeAnswers 0
scalar FogNoLB.fog[31].dispatcher droppedJobsSLA 0
scalar FogNoLB.fog[31].dispatcher jobs_class_1 1330
scalar FogNoLB.fog[31].dispatcher localJobs_class_1 1330
scalar FogNoLB.fog[31].server[0] rho 0.20078599452972
scalar FogNoLB.fog[31].server[0] congestionRatio 0
scalar FogNoLB.fog[31].server[0] totalJobs 1330
scalar FogNoLB.fog[31].server[0] droppedJobsQueue 32
scalar FogNoLB.fog[31].server[0] droppedJobsTimout 0
scalar FogNoLB.fog[31].server[0] droppedJobsSLA 0
scalar FogNoLB.fog[31].server[0] droppedJobsTotal 32
scalar FogNoLB.fog[32].dispatcher localJobs 1309
scalar FogNoLB.fog[32].dispatcher remoteJobs 0
scalar FogNoLB.fog[32].dispatcher probeQueries 0
scalar FogNoLB.fog[32].dispatcher probeAnswers 0
scalar FogNoLB.fog[32].dispatcher droppedJobsSLA 0
scalar FogNoLB.fog[32].dispatcher jobs_class_1 1309
scalar FogNoLB.fog[32].dispatcher localJobs_class_1 1309
scalar FogNoLB.fog[32].server[0] rho 0.19993843138218
scalar FogNoLB.fog[32].server[0] congestionRatio 0
scalar FogNoLB.fog[32].server[0] totalJobs 1309
scalar FogNoLB.fog[32].server[0] droppedJobsQueue 16
scalar FogNoLB.fog[32].server[0] droppedJobsTimout 0
scalar FogNoLB.fog[32].server[0] droppedJobsSLA 0
scalar FogNoLB.fog[32].server[0] droppedJobsTotal 16
scalar FogNoLB.fog[33].dispatcher localJobs 1224
scalar FogNoLB.fog[33].dispatcher remoteJobs 0
scalar FogNoLB.fog[33].dispatcher probeQueries 0
scalar FogNoLB.fog[33].dispatcher probeAnswers 0
scalar FogNoLB.fog[33].dispatcher droppedJobsSLA 0
scalar FogNoLB.fog[33].dispatcher jobs_class_1 1224
scalar FogNoLB.fog[33].dispatcher localJobs_class_1 1224
scalar FogNoLB.fog[33].server[0] rho 0.18555070459843
scalar FogNoLB.fog[33].server[0] congestionRatio 0
scalar FogNoLB.fog[33].server[0] totalJobs 1224
scalar FogNoLB.fog[33].server[0] droppedJobsQueue 24
scalar FogNoLB.fog[33].server[0] droppedJobsTimout 0
scalar FogNoLB.fog[33].server[0] droppedJobsSLA 0
scalar FogNoLB.fog[33].server[0] droppedJobsTotal 24
scalar FogNoLB.fog[34].dispatcher localJobs 1297
scalar FogNoLB.fog[34].dispatcher remoteJobs 0
scalar FogNoLB.fog[34].dispatcher probeQueries 0
scalar FogNoLB.fog[34].dispatcher probeAnswers 0
scalar FogNoLB.fog[34].dispatcher droppedJobsSLA 0
scalar FogNoLB.fog[34].dispatcher jobs_class_1 1297
scalar FogNoLB.fog[34].dispatcher localJobs_class_1 1297
scalar FogNoLB.fog[34].server[0] rho 0.1972204297781
scalar FogNoLB.fog[34].server[0] congestionRatio 0
scalar FogNoLB.fog[34].server[0] totalJobs 1297
scalar FogNoLB.fog[34].server[0] droppedJobsQueue 21
scalar FogNoLB.fog[34].server[0] droppedJobsTimout 0
scalar FogNoLB.fog[34].server[0] droppedJobsSLA 0
scalar FogNoLB.fog[34].server[0] droppedJobsTotal 21
scalar FogNoLB.fog[35].dispatcher localJobs 1287
scalar FogNoLB.fog[35].dispatcher remoteJobs 0
scalar FogNoLB.fog[35].dispatcher probeQueries 0
scalar FogNoLB.fog[35].dispatcher probeAnswers 0
scalar FogNoLB.fog[35].dispatcher droppedJobsSLA 0
scalar FogNoLB.fog[35].dispatcher jobs_class_1 1287
scalar FogNoLB.fog[35].dispatcher localJobs_class_1 1287
scalar FogNoLB.fog[35].server[0] rho 0.19410270452499
scalar FogNoLB.fog[35].server[0] congestionRatio 0
scalar FogNoLB.fog[35].server[0] totalJobs 1287
scalar FogNoLB.fog[35].server[0] droppedJobsQueue 31
scalar FogNoLB.fog[35].server[0] droppedJobsTimout 0
scalar FogNoLB.fog[35].server[0] droppedJobsSLA 0
scalar FogNoLB.fog[35].server[0] droppedJobsTotal 31
scalar FogNoLB.fog[36].dispatcher localJobs 1335
scalar FogNoLB.fog[36].dispatcher remoteJobs 0
scalar FogNoLB.fog[36].dispatcher probeQueries 0
scalar FogNoLB.fog[36].dispatcher probeAnswers 0
scalar FogNoLB.fog[36].dispatcher droppedJobsSLA 0
scalar FogNoLB.fog[36].dispatcher jobs_class_1 1335
scalar FogNoLB.fog[36].dispatcher localJobs_class_1 1335
scalar FogNoLB.fog[36].server[0] rho 0.20316857099533
scalar FogNoLB.fog[36].server[0] congestionRatio 0
scalar FogNoLB.fog[36].server[0] totalJobs 1335
scalar FogNoLB.fog[36].server[0] droppedJobsQueue 22
scalar FogNoLB.fog[36].server[0] droppedJobsTimout 0
scalar FogNoLB.fog[36].server[0] droppedJobsSLA 0
scalar FogNoLB.fog[36].server[0] droppedJobsTotal 22
scalar FogNoLB.fog[37].dispatcher localJobs 1362
scalar FogNoLB.fog[37].dispatcher remoteJobs 0
scalar FogNoLB.fog[37].dispatcher probeQueries 0
scalar FogNoLB.fog[37].dispatcher probeAnswers 0
scalar FogNoLB.fog[37].dispatcher droppedJobsSLA 0
scalar FogNoLB.fog[37].dispatcher jobs_class_1 1362
scalar FogNoLB.fog[37].dispatcher localJobs_class_1 1362
scalar FogNoLB.fog[37].server[0] rho 0.20516680181026
scalar FogNoLB.fog[37].server[0] congestionRatio 0
scalar FogNoLB.fog[37].server[0] totalJobs 1362
scalar FogNoLB.fog[37].server[0] droppedJobsQueue 35
scalar FogNoLB.fog[37].server[0] droppedJobsTimout 0
scalar FogNoLB.fog[37].server[0] droppedJobsSLA 0
scalar FogNoLB.fog[37].server[0] droppedJobsTotal 35
scalar FogNoLB.fog[38].dispatcher localJobs 1344
scalar FogNoLB.fog[38].dispatcher remoteJobs 0
scalar FogNoLB.fog[38].dispatcher probeQueries 0
scalar FogNoLB.fog[38].dispatcher probeAnswers 0
scalar FogNoLB.fog[38].dispatcher droppedJobsSLA 0
scalar FogNoLB.fog[38].dispatcher jobs_class_1 1344
scalar FogNoLB.fog[38].dispatcher localJobs_class_1 1344
scalar FogNoLB.fog[38].server[0] rho 0.20217782258987
scalar FogNoLB.fog[38].server[0] congestionRatio 0
scalar FogNoLB.fog[38].server[0] totalJobs 1344
scalar FogNoLB.fog[38].server[0] droppedJobsQueue 37
scalar FogNoLB.fog[38].server[0] droppedJobsTimout 0
scalar FogNoLB.fog[38].server[0] droppedJobsSLA 0
scalar FogNoLB.fog[38].server[0] droppedJobsTotal 37
scalar FogNoLB.fog[39].dispatcher localJobs 1311
scalar FogNoLB.fog[39].dispatcher remoteJobs 0
scalar FogNoLB.fog[39].dispatcher probeQueries 0
scalar FogNoLB.fog[39].dispatcher probeAnswers 0
scalar FogNoLB.fog[39].dispatcher droppedJobsSLA 0
scalar FogNoLB.fog[39].dispatcher jobs_class_1 1311
scalar FogNoLB.fog[39].dispatcher localJobs_class_1 1311
scalar FogNoLB.fog[39].server[0] rho 0.1993258446455
scalar FogNoLB.fog[39].server[0] congestionRatio 0
scalar FogNoLB.fog[39].server[0] totalJobs 1311
scalar FogNoLB.fog[39].server[0] droppedJobsQueue 22
scalar FogNoLB.fog[39].server[0] droppedJobsTimout 0
scalar FogNoLB.fog[39].server[0] droppedJobsSLA 0
scalar FogNoLB.fog[39].server[0] droppedJobsTotal 22
scalar FogNoLB.fog[40].dispatcher localJobs 1253
scalar FogNoLB.fog[40].dispatcher remoteJobs 0
scalar FogNoLB.fog[40].dispatcher probeQueries 0
scalar FogNoLB.fog[40].dispatcher probeAnswers 0
scalar FogNoLB.fog[40].dispatcher droppedJobsSLA 0
scalar FogNoLB.fog[40].dispatcher jobs_class_1 1253
scalar FogNoLB.fog[40].dispatcher localJobs_class_1 1253
scalar FogNoLB.fog[40].server[0] rho 0.19031503796577
scalar FogNoLB.fog[40].server[0] congestionRatio 0
scalar FogNoLB.fog[40].server[0] totalJobs 1253
scalar FogNoLB.fog[40].server[0] droppedJobsQueue 22
scalar FogNoLB.fog[40].server[0] droppedJobsTimout 0
scalar FogNoLB.fog[40].server[0] droppedJobsSLA 0
scalar FogNoLB.fog[40].server[0] droppedJobsTotal 22
scalar FogNoLB.fog[41].dispatcher localJobs 1304
scalar FogNoLB.fog[41].dispatcher remoteJobs 0
scalar FogNoLB.fog[41].dispatcher probeQueries 0
scalar FogNoLB.fog[41].dispatcher probeAnswers 0
scalar FogNoLB.fog[41].dispatcher droppedJobsSLA 0
scalar FogNoLB.fog[41].dispatcher jobs_class_1 1304
scalar FogNoLB.fog[41].dispatcher localJobs_class_1 1304
scalar FogNoLB.fog[41].server[0] rho 0.19714018702507
scalar FogNoLB.fog[41].server[0] congestionRatio 0
scalar FogNoLB.fog[41].server[0] totalJobs 1304
scalar FogNoLB.fog[41].server[0] droppedJobsQueue 31
scalar FogNoLB.fog[41].server[0] droppedJobsTimout 0
scalar FogNoLB.fog[41].server[0] droppedJobsSLA 0
scalar FogNoLB.fog[41].server[0] droppedJobsTotal 31
scalar FogNoLB.fog[42].dispatcher localJobs 1281
scalar FogNoLB.fog[42].dispatcher remoteJobs 0
scalar FogNoLB.fog[42].dispatcher probeQueries 0
scalar FogNoLB.fog[42].dispatcher probeAnswers 0
scalar FogNoLB.fog[42].dispatcher droppedJobsSLA 0
scalar FogNoLB.fog[42].dispatcher jobs_class_1 1281
scalar FogNoLB.fog[42].dispatcher localJobs_class_1 1281
scalar FogNoLB.fog[42].server[0] rho 0.19300404191017
scalar FogNoLB.fog[42].server[0] congestionRatio 0
scalar FogNoLB.fog[42].server[0] totalJobs 1281
scalar FogNoLB.fog[42].server[0] droppedJobsQueue 33
scalar FogNoLB.fog[42].server[0] droppedJobsTimout 0
scalar FogNoLB.fog[42].server[0] droppedJobsSLA 0
scalar FogNoLB.fog[42].server[0] droppedJobsTotal 33
scalar FogNoLB.fog[43].dispatcher localJobs 1315
scalar FogNoLB.fog[43].dispatcher remoteJobs 0
scalar FogNoLB.fog[43].dispatcher probeQueries 0
scalar FogNoLB.fog[43].dispatcher probeAnswers 0
scalar FogNoLB.fog[43].dispatcher droppedJobsSLA 0
scalar FogNoLB.fog[43].dispatcher jobs_class_1 1315
scalar FogNoLB.fog[43].dispatcher localJobs_class_1 1315
scalar FogNoLB.fog[43].server[0] rho 0.19876311719418
scalar FogNoLB.fog[43].server[0] congestionRatio 0
scalar FogNoLB.fog[43].server[0] totalJobs 1315
scalar FogNoLB.fog[43].server[0] droppedJobsQueue 30
scalar FogNoLB.fog[43].server[0] droppedJobsTimout 0
scalar FogNoLB.fog[43].server[0] droppedJobsSLA 0
scalar FogNoLB.fog[43].server[0] droppedJobsTotal 30
scalar FogNoLB.fog[44].dispatcher localJobs 1324
scalar FogNoLB.fog[44].dispatcher remoteJobs 0
scalar FogNoLB.fog[44].dispatcher probeQueries 0
scalar FogNoLB.fog[44].dispatcher probeAnswers 0
scalar FogNoLB.fog[44].dispatcher droppedJobsSLA 0
scalar FogNoLB.fog[44].dispatcher jobs_class_1 1324
scalar FogNoLB.fog[44].dispatcher localJobs_class_1 1324
scalar FogNoLB.fog[44].server[0] rho 0.199881285429
scalar FogNoLB.fog[44].server[0] congestionRatio 0
scalar FogNoLB.fog[44].server[0] totalJobs 1324
scalar FogNoLB.fog[44].server[0] droppedJobsQueue 31
scalar FogNoLB.fog[44].server[0] droppedJobsTimout 0
scalar FogNoLB.fog[44].server[0] droppedJobsSLA 0
scalar FogNoLB.fog[44].server[0] droppedJobsTotal 31
scalar FogNoLB.fog[45].dispatcher localJobs 1280
scalar FogNoLB.fog[45].dispatcher remoteJobs 0
scalar FogNoLB.fog[45].dispatcher probeQueries 0
scalar FogNoLB.fog[45].dispatcher probeAnswers 0
scalar FogNoLB.fog[45].dispatcher droppedJobsSLA 0
scalar FogNoLB.fog[45].dispatcher jobs_class_1 1280
scalar FogNoLB.fog[45].dispatcher localJobs_class_1 1280
scalar FogNoLB.fog[45].server[0] rho 0.19476424157619
scalar FogNoLB.fog[45].server[0] congestionRatio 0
scalar FogNoLB.fog[45].server[0] totalJobs 1280
scalar FogNoLB.fog[45].server[0] droppedJobsQueue 20
scalar FogNoLB.fog[45].server[0] droppedJobsTimout 0
scalar FogNoLB.fog[45].server[0] droppedJobsSLA 0
scalar FogNoLB.fog[45].server[0] droppedJobsTotal 20
scalar FogNoLB.fog[46].dispatcher localJobs 1268
scalar FogNoLB.fog[46].dispatcher remoteJobs 0
scalar FogNoLB.fog[46].dispatcher probeQueries 0
scalar FogNoLB.fog[46].dispatcher probeAnswers 0
scalar FogNoLB.fog[46].dispatcher droppedJobsSLA 0
scalar FogNoLB.fog[46].dispatcher jobs_class_1 1268
scalar FogNoLB.fog[46].dispatcher localJobs_class_1 1268
scalar FogNoLB.fog[46].server[0] rho 0.19216947257519
scalar FogNoLB.fog[46].server[0] congestionRatio 0
scalar FogNoLB.fog[46].server[0] totalJobs 1268
scalar FogNoLB.fog[46].server[0] droppedJobsQueue 27
scalar FogNoLB.fog[46].server[0] droppedJobsTimout 0
scalar FogNoLB.fog[46].server[0] droppedJobsSLA 0
scalar FogNoLB.fog[46].server[0] droppedJobsTotal 27
scalar FogNoLB.fog[47].dispatcher localJobs 1344
scalar FogNoLB.fog[47].dispatcher remoteJobs 0
scalar FogNoLB.fog[47].dispatcher probeQueries 0
scalar FogNoLB.fog[47].dispatcher probeAnswers 0
scalar FogNoLB.fog[47].dispatcher droppedJobsSLA 0
scalar FogNoLB.fog[47].dispatcher jobs_class_1 1344
scalar FogNoLB.fog[47].dispatcher localJobs_class_1 1344
scalar FogNoLB.fog[47].server[0] rho 0.20502069592476
scalar FogNoLB.fog[47].server[0] congestionRatio 0
scalar FogNoLB.fog[47].server[0] totalJobs 1344
scalar FogNoLB.fog[47].server[0] droppedJobsQueue 17
scalar FogNoLB.fog[47].server[0] droppedJobsTimout 0
scalar FogNoLB.fog[47].server[0] droppedJobsSLA 0
scalar FogNoLB.fog[47].server[0] droppedJobsTotal 17
scalar FogNoLB.fog[48].dispatcher localJobs 1228
scalar FogNoLB.fog[48].dispatcher remoteJobs 0
scalar FogNoLB.fog[48].dispatcher probeQueries 0
scalar FogNoLB.fog[48].dispatcher probeAnswers 0
scalar FogNoLB.fog[48].dispatcher droppedJobsSLA 0
scalar FogNoLB.fog[48].dispatcher jobs_class_1 1228
scalar FogNoLB.fog[48].dispatcher localJobs_class_1 1228
scalar FogNoLB.fog[48].server[0] rho 0.18707579374313
scalar FogNoLB.fog[48].server[0] congestionRatio 0
scalar FogNoLB.fog[48].server[0] totalJobs 1228
scalar FogNoLB.fog[48].server[0] droppedJobsQueue 19
scalar FogNoLB.fog[48].server[0] droppedJobsTimout 0
scalar FogNoLB.fog[48].server[0] droppedJobsSLA 0
scalar FogNoLB.fog[48].server[0] droppedJobsTotal 19
scalar FogNoLB.fog[49].dispatcher localJobs 1290
scalar FogNoLB.fog[49].dispatcher remoteJobs 0
scalar FogNoLB.fog[49].dispatcher probeQueries 0
scalar FogNoLB.fog[49].dispatcher probeAnswers 0
scalar FogNoLB.fog[49].dispatcher droppedJobsSLA 0
scalar FogNoLB.fog[49].dispatcher jobs_class_1 1290
scalar FogNoLB.fog[49].dispatcher localJobs_class_1 1290
scalar FogNoLB.fog[49].server[0] rho 0.19668030738831
scalar FogNoLB.fog[49].server[0] congestionRatio 0
scalar FogNoLB.fog[49].server[0] totalJobs 1290
scalar FogNoLB.fog[49].server[0] droppedJobsQueue 19
scalar FogNoLB.fog[49].server[0] droppedJobsTimout 0
scalar FogNoLB.fog[49].server[0] droppedJobsSLA 0
scalar FogNoLB.fog[49].server[0] droppedJobsTotal 19
scalar FogNoLB.fog[50].dispatcher localJobs 1311
scalar FogNoLB.fog[50].dispatcher remoteJobs 0
scalar FogNoLB.fog[50].dispatcher probeQueries 0
scalar FogNoLB.fog[50].dispatcher probeAnswers 0
scalar FogNoLB.fog[50].dispatcher droppedJobsSLA 0
scalar FogNoLB.fog[50].dispatcher jobs_class_1 1311
scalar FogNoLB.fog[50].dispatcher localJobs_class_1 1311
scalar FogNoLB.fog[50].server[0] rho 0.19933098554611
scalar FogNoLB.fog[50].server[0] congestionRatio 0
scalar FogNoLB.fog[50].server[0] totalJobs 1311
scalar FogNoLB.fog[50].server[0] droppedJobsQueue 22
scalar FogNoLB.fog[50].server[0] droppedJobsTimout 0
scalar FogNoLB.fog[50].server[0] droppedJobsSLA 0
scalar FogNoLB.fog[50].server[0] droppedJobsTotal 22
scalar FogNoLB.fog[51].dispatcher localJobs 1322
scalar FogNoLB.fog[51].dispatcher remoteJobs 0
scalar FogNoLB.fog[51].dispatcher probeQueries 0
scalar FogNoLB.fog[51].dispatcher probeAnswers 0
scalar FogNoLB.fog[51].dispatcher droppedJobsSLA 0
scalar FogNoLB.fog[51].dispatcher jobs_class_1 1322
scalar FogNoLB.fog[51].dispatcher localJobs_class_1 1322
scalar FogNoLB.fog[51].server[0] rho 0.19950979948044
scalar FogNoLB.fog[51].server[0] congestionRatio 0
scalar FogNoLB.fog[51].server[0] totalJobs 1322
scalar FogNoLB.fog[51].server[0] droppedJobsQueue 33
scalar FogNoLB.fog[51].server[0] droppedJobsTimout 0
scalar FogNoLB.fog[51].server[0] droppedJobsSLA 0
scalar FogNoLB.fog[51].server[0] droppedJobsTotal 33
scalar FogNoLB.fog[52].dispatcher localJobs 1327
scalar FogNoLB.fog[52].dispatcher remoteJobs 0
scalar FogNoLB.fog[52].dispatcher probeQueries 0
scalar FogNoLB.fog[52].dispatcher probeAnswers 0
scalar FogNoLB.fog[52].dispatcher droppedJobsSLA 0
scalar FogNoLB.fog[52].dispatcher jobs_class_1 1327
scalar FogNoLB.fog[52].dispatcher localJobs_class_1 1327
scalar FogNoLB.fog[52].server[0] rho 0.20151022076607
scalar FogNoLB.fog[52].server[0] congestionRatio 0
scalar FogNoLB.fog[52].server[0] totalJobs 1327
scalar FogNoLB.fog[52].server[0] droppedJobsQueue 23
scalar FogNoLB.fog[52].server[0] droppedJobsTimout 0
scalar FogNoLB.fog[52].server[0] droppedJobsSLA 0
scalar FogNoLB.fog[52].server[0] droppedJobsTotal 23
scalar FogNoLB.fog[53].dispatcher localJobs 1299
scalar FogNoLB.fog[53].dispatcher remoteJobs 0
scalar FogNoLB.fog[53].dispatcher probeQueries 0
scalar FogNoLB.fog[53].dispatcher probeAnswers 0
scalar FogNoLB.fog[53].dispatcher droppedJobsSLA 0
scalar FogNoLB.fog[53].dispatcher jobs_class_1 1299
scalar FogNoLB.fog[53].dispatcher localJobs_class_1 1299
scalar FogNoLB.fog[53].server[0] rho 0.19666369259357
scalar FogNoLB.fog[53].server[0] congestionRatio 0
scalar FogNoLB.fog[53].server[0] totalJobs 1299
scalar FogNoLB.fog[53].server[0] droppedJobsQueue 27
scalar FogNoLB.fog[53].server[0] droppedJobsTimout 0
scalar FogNoLB.fog[53].server[0] droppedJobsSLA 0
scalar FogNoLB.fog[53].server[0] droppedJobsTotal 27
scalar FogNoLB.fog[54].dispatcher localJobs 1276
scalar FogNoLB.fog[54].dispatcher remoteJobs 0
scalar FogNoLB.fog[54].dispatcher probeQueries 0
scalar FogNoLB.fog[54].dispatcher probeAnswers 0
scalar FogNoLB.fog[54].dispatcher droppedJobsSLA 0
scalar FogNoLB.fog[54].dispatcher jobs_class_1 1276
scalar FogNoLB.fog[54].dispatcher localJobs_class_1 1276
scalar FogNoLB.fog[54].server[0] rho 0.19340090453625
scalar FogNoLB.fog[54].server[0] congestionRatio 0
scalar FogNoLB.fog[54].server[0] totalJobs 1276
scalar FogNoLB.fog[54].server[0] droppedJobsQueue 25
scalar FogNoLB.fog[54].server[0] droppedJobsTimout 0
scalar FogNoLB.fog[54].server[0] droppedJobsSLA 0
scalar FogNoLB.fog[54].server[0] droppedJobsTotal 25
scalar FogNoLB.fog[55].dispatcher localJobs 1297
scalar FogNoLB.fog[55].dispatcher remoteJobs 0
scalar FogNoLB.fog[55].dispatcher probeQueries 0
scalar FogNoLB.fog[55].dispatcher probeAnswers 0
scalar FogNoLB.fog[55].dispatcher droppedJobsSLA 0
scalar FogNoLB.fog[55].dispatcher jobs_class_1 1297
scalar FogNoLB.fog[55].dispatcher localJobs_class_1 1297
scalar FogNoLB.fog[55].server[0] rho 0.19542624056339
scalar FogNoLB.fog[55].server[0] congestionRatio 0
scalar FogNoLB.fog[55].server[0] totalJobs 1297
scalar FogNoLB.fog[55].server[0] droppedJobsQueue 33
scalar FogNoLB.fog[55].server[0] droppedJobsTimout 0
scalar FogNoLB.fog[55].server[0] droppedJobsSLA 0
scalar FogNoLB.fog[55].server[0] droppedJobsTotal 33
scalar FogNoLB.fog[56].dispatcher localJobs 1296
scalar FogNoLB.fog[56].dispatcher remoteJobs 0
scalar FogNoLB.fog[56].dispatcher probeQueries 0
scalar FogNoLB.fog[56].dispatcher probeAnswers 0
scalar FogNoLB.fog[56].dispatcher droppedJobsSLA 0
scalar FogNoLB.fog[56].dispatcher jobs_class_1 1296
scalar FogNoLB.fog[56].dispatcher localJobs_class_1 1296
scalar FogNoLB.fog[56].server[0] rho 0.19697844982147
scalar FogNoLB.fog[56].server[0] congestionRatio 0
scalar FogNoLB.fog[56].server[0] totalJobs 1296
scalar FogNoLB.fog[56].server[0] droppedJobsQueue 22
scalar FogNoLB.fog[56].server[0] droppedJobsTimout 0
scalar FogNoLB.fog[56].server[0] droppedJobsSLA 0
scalar FogNoLB.fog[56].server[0] droppedJobsTotal 22
scalar FogNoLB.fog[57].dispatcher localJobs 1296
scalar FogNoLB.fog[57].dispatcher remoteJobs 0
scalar FogNoLB.fog[57].dispatcher probeQueries 0
scalar FogNoLB.fog[57].dispatcher probeAnswers 0
scalar FogNoLB.fog[57].dispatcher droppedJobsSLA 0
scalar FogNoLB.fog[57].dispatcher jobs_class_1 1296
scalar FogNoLB.fog[57].dispatcher localJobs_class_1 1296
scalar FogNoLB.fog[57].server[0] rho 0.19760692119598
scalar FogNoLB.fog[57].server[0] congestionRatio 0
scalar FogNoLB.fog[57].server[0] totalJobs 1296
scalar FogNoLB.fog[57].server[0] droppedJobsQueue 18
scalar FogNoLB.fog[57].server[0] droppedJobsTimout 0
scalar FogNoLB.fog[57].server[0] droppedJobsSLA 0
scalar FogNoLB.fog[57].server[0] droppedJobsTotal 18
scalar FogNoLB.fog[58].dispatcher localJobs 1310
scalar FogNoLB.fog[58].dispatcher remoteJobs 0
scalar FogNoLB.fog[58].dispatcher probeQueries 0
scalar FogNoLB.fog[58].dispatcher probeAnswers 0
scalar FogNoLB.fog[58].dispatcher droppedJobsSLA 0
scalar FogNoLB.fog[58].dispatcher jobs_class_1 1310
scalar FogNoLB.fog[58].dispatcher localJobs_class_1 1310
scalar FogNoLB.fog[58].server[0] rho 0.19950865209103
scalar FogNoLB.fog[58].server[0] congestionRatio 0
scalar FogNoLB.fog[58].server[0] totalJobs 1310
scalar FogNoLB.fog[58].server[0] droppedJobsQueue 20
scalar FogNoLB.fog[58].server[0] droppedJobsTimout 0
scalar FogNoLB.fog[58].server[0] droppedJobsSLA 0
scalar FogNoLB.fog[58].server[0] droppedJobsTotal 20
scalar FogNoLB.fog[59].dispatcher localJobs 1322
scalar FogNoLB.fog[59].dispatcher remoteJobs 0
scalar FogNoLB.fog[59].dispatcher probeQueries 0
scalar FogNoLB.fog[59].dispatcher probeAnswers 0
scalar FogNoLB.fog[59].dispatcher droppedJobsSLA 0
scalar FogNoLB.fog[59].dispatcher jobs_class_1 1322
scalar FogNoLB.fog[59].dispatcher localJobs_class_1 1322
scalar FogNoLB.fog[59].server[0] rho 0.20171563327312
scalar FogNoLB.fog[59].server[0] congestionRatio 0
scalar FogNoLB.fog[59].server[0] totalJobs 1322
scalar FogNoLB.fog[59].server[0] droppedJobsQueue 20
scalar FogNoLB.fog[59].server[0] droppedJobsTimout 0
scalar FogNoLB.fog[59].server[0] droppedJobsSLA 0
scalar FogNoLB.fog[59].server[0] droppedJobsTotal 20
scalar FogNoLB.fog[60].dispatcher localJobs 1198
scalar FogNoLB.fog[60].dispatcher remoteJobs 0
scalar FogNoLB.fog[60].dispatcher probeQueries 0
scalar FogNoLB.fog[60].dispatcher probeAnswers 0
scalar FogNoLB.fog[60].dispatcher droppedJobsSLA 0
scalar FogNoLB.fog[60].dispatcher jobs_class_1 1198
scalar FogNoLB.fog[60].dispatcher localJobs_class_1 1198
scalar FogNoLB.fog[60].server[0] rho 0.18172006309032
scalar FogNoLB.fog[60].server[0] congestionRatio 0
scalar FogNoLB.fog[60].server[0] totalJobs 1198
scalar FogNoLB.fog[60].server[0] droppedJobsQueue 23
scalar FogNoLB.fog[60].server[0] droppedJobsTimout 0
scalar FogNoLB.fog[60].server[0] droppedJobsSLA 0
scalar FogNoLB.fog[60].server[0] droppedJobsTotal 23
scalar FogNoLB.fog[61].dispatcher localJobs 1273
scalar FogNoLB.fog[61].dispatcher remoteJobs 0
scalar FogNoLB.fog[61].dispatcher probeQueries 0
scalar FogNoLB.fog[61].dispatcher probeAnswers 0
scalar FogNoLB.fog[61].dispatcher droppedJobsSLA 0
scalar FogNoLB.fog[61].dispatcher jobs_class_1 1273
scalar FogNoLB.fog[61].dispatcher localJobs_class_1 1273
scalar FogNoLB.fog[61].server[0] rho 0.19259260594845
scalar FogNoLB.fog[61].server[0] congestionRatio 0
scalar FogNoLB.fog[61].server[0] totalJobs 1273
scalar FogNoLB.fog[61].server[0] droppedJobsQueue 28
scalar FogNoLB.fog[61].server[0] droppedJobsTimout 0
scalar FogNoLB.fog[61].server[0] droppedJobsSLA 0
scalar FogNoLB.fog[61].server[0] droppedJobsTotal 28
scalar FogNoLB.fog[62].dispatcher localJobs 1327
scalar FogNoLB.fog[62].dispatcher remoteJobs 0
scalar FogNoLB.fog[62].dispatcher probeQueries 0
scalar FogNoLB.fog[62].dispatcher probeAnswers 0
scalar FogNoLB.fog[62].dispatcher droppedJobsSLA 0
scalar FogNoLB.fog[62].dispatcher jobs_class_1 1327
scalar FogNoLB.fog[62].dispatcher localJobs_class_1 1327
scalar FogNoLB.fog[62].server[0] rho 0.20041017234325
scalar FogNoLB.fog[62].server[0] congestionRatio 0
scalar FogNoLB.fog[62].server[0] totalJobs 1327
scalar FogNoLB.fog[62].server[0] droppedJobsQueue 30
scalar FogNoLB.fog[62].server[0] droppedJobsTimout 0
scalar FogNoLB.fog[62].server[0] droppedJobsSLA 0
scalar FogNoLB.fog[62].server[0] droppedJobsTotal 30
scalar FogNoLB.fog[63].dispatcher localJobs 1274
scalar FogNoLB.fog[63].dispatcher remoteJobs 0
scalar FogNoLB.fog[63].dispatcher probeQueries 0
scalar FogNoLB.fog[63].dispatcher probeAnswers 0
scalar FogNoLB.fog[63].dispatcher droppedJobsSLA 0
scalar FogNoLB.fog[63].dispatcher jobs_class_1 1274
scalar FogNoLB.fog[63].dispatcher localJobs_class_1 1274
scalar FogNoLB.fog[63].server[0] rho 0.19359219074249
scalar FogNoLB.fog[63].server[0] congestionRatio 0
scalar FogNoLB.fog[63].server[0] totalJobs 1274
scalar FogNoLB.fog[63].server[0] droppedJobsQueue 21
scalar FogNoLB.fog[63].server[0] droppedJobsTimout 0
scalar FogNoLB.fog[63].server[0] droppedJobsSLA 0
scalar FogNoLB.fog[63].server[0] droppedJobsTotal 21
scalar FogNoLB.fog[64].dispatcher localJobs 1282
scalar FogNoLB.fog[64].dispatcher remoteJobs 0
scalar FogNoLB.fog[64].dispatcher probeQueries 0
scalar FogNoLB.fog[64].dispatcher probeAnswers 0
scalar FogNoLB.fog[64].dispatcher droppedJobsSLA 0
scalar FogNoLB.fog[64].dispatcher jobs_class_1 1282
scalar FogNoLB.fog[64].dispatcher localJobs_class_1 1282
scalar FogNoLB.fog[64].server[0] rho 0.19442981481552
scalar FogNoLB.fog[64].server[0] congestionRatio 0
scalar FogNoLB.fog[64].server[0] totalJobs 1282
scalar FogNoLB.fog[64].server[0] droppedJobsQueue 25
scalar FogNoLB.fog[64].server[0] droppedJobsTimout 0
scalar FogNoLB.fog[64].server[0] droppedJobsSLA 0
scalar FogNoLB.fog[64].server[0] droppedJobsTotal 25
scalar FogNoLB.fog[65].dispatcher localJobs 1307
scalar FogNoLB.fog[65].dispatcher remoteJobs 0
scalar FogNoLB.fog[65].dispatcher probeQueries 0
scalar FogNoLB.fog[65].dispatcher probeAnswers 0
scalar FogNoLB.fog[65].dispatcher droppedJobsSLA 0
scalar FogNoLB.fog[65].dispatcher jobs_class_1 1307
scalar FogNoLB.fog[65].dispatcher localJobs_class_1 1307
scalar FogNoLB.fog[65].server[0] rho 0.19838611781597
scalar FogNoLB.fog[65].server[0] congestionRatio 0
scalar FogNoLB.fog[65].server[0] totalJobs 1307
scalar FogNoLB.fog[65].server[0] droppedJobsQueue 23
scalar FogNoLB.fog[65].server[0] droppedJobsTimout 0
scalar FogNoLB.fog[65].server[0] droppedJobsSLA 0
scalar FogNoLB.fog[65].server[0] droppedJobsTotal 23
scalar FogNoLB.fog[66].dispatcher localJobs 1296
scalar FogNoLB.fog[66].dispatcher remoteJobs 0
scalar FogNoLB.fog[66].dispatcher probeQueries 0
scalar FogNoLB.fog[66].dispatcher probeAnswers 0
scalar FogNoLB.fog[66].dispatcher droppedJobsSLA 0
scalar FogNoLB.fog[66].dispatcher jobs_class_1 1296
scalar FogNoLB.fog[66].dispatcher localJobs_class_1 1296
scalar FogNoLB.fog[66].server[0] rho 0.19676943123341
scalar FogNoLB.fog[66].server[0] congestionRatio 0
scalar FogNoLB.fog[66].server[0] totalJobs 1296
scalar FogNoLB.fog[66].server[0] droppedJobsQueue 24
scalar FogNoLB.fog[66].server[0] droppedJobsTimout 0
scalar FogNoLB.fog[66].server[0] droppedJobsSLA 0
scalar FogNoLB.fog[66].server[0] droppedJobsTotal 24
scalar FogNoLB.fog[67].dispatcher localJobs 1275
scalar FogNoLB.fog[67].dispatcher remoteJobs 0
scalar FogNoLB.fog[67].dispatcher probeQueries 0
scalar FogNoLB.fog[67].dispatcher probeAnswers 0
scalar FogNoLB.fog[67].dispatcher droppedJobsSLA 0
scalar FogNoLB.fog[67].dispatcher jobs_class_1 1275
scalar FogNoLB.fog[67].dispatcher localJobs_class_1 1275
scalar FogNoLB.fog[67].server[0] rho 0.19371543824673
scalar FogNoLB.fog[67].server[0] congestionRatio 0
scalar FogNoLB.fog[67].server[0] totalJobs 1275
scalar FogNoLB.fog[67].server[0] droppedJobsQueue 22
scalar FogNoLB.fog[67].server[0] droppedJobsTimout 0
scalar FogNoLB.fog[67].server[0] droppedJobsSLA 0
scalar FogNoLB.fog[67].server[0] droppedJobsTotal 22
scalar FogNoLB.fog[68].dispatcher localJobs 1280
scalar FogNoLB.fog[68].dispatcher remoteJobs 0
scalar FogNoLB.fog[68].dispatcher probeQueries 0
scalar FogNoLB.fog[68].dispatcher probeAnswers 0
scalar FogNoLB.fog[68].dispatcher droppedJobsSLA 0
scalar FogNoLB.fog[68].dispatcher jobs_class_1 1280
scalar FogNoLB.fog[68].dispatcher localJobs_class_1 1280
scalar FogNoLB.fog[68].server[0] rho 0.19533507525921
scalar FogNoLB.fog[68].server[0] congestionRatio 0
scalar FogNoLB.fog[68].server[0] totalJobs 1280
scalar FogNoLB.fog[68].server[0] droppedJobsQueue 17
scalar FogNoLB.fog[68].server[0] droppedJobsTimout 0
scalar FogNoLB.fog[68].server[0] droppedJobsSLA 0
scalar FogNoLB.fog[68].server[0] droppedJobsTotal 17
scalar FogNoLB.fog[69].dispatcher localJobs 1347
scalar FogNoLB.fog[69].dispatcher remoteJobs 0
scalar FogNoLB.fog[69].dispatcher probeQueries 0
scalar FogNoLB.fog[69].dispatcher probeAnswers 0
scalar FogNoLB.fog[69].dispatcher droppedJobsSLA 0
scalar FogNoLB.fog[69].dispatcher jobs_class_1 1347
scalar FogNoLB.fog[69].dispatcher localJobs_class_1 1347
scalar FogNoLB.fog[69].server[0] rho 0.20450440049171
scalar FogNoLB.fog[69].server[0] congestionRatio 0
scalar FogNoLB.fog[69].server[0] totalJobs 1347
scalar FogNoLB.fog[69].server[0] droppedJobsQueue 25
scalar FogNoLB.fog[69].server[0] droppedJobsTimout 0
scalar FogNoLB.fog[69].server[0] droppedJobsSLA 0
scalar FogNoLB.fog[69].server[0] droppedJobsTotal 25
scalar FogNoLB.fog[70].dispatcher localJobs 1256
scalar FogNoLB.fog[70].dispatcher remoteJobs 0
scalar FogNoLB.fog[70].dispatcher probeQueries 0
scalar FogNoLB.fog[70].dispatcher probeAnswers 0
scalar FogNoLB.fog[70].dispatcher droppedJobsSLA 0
scalar FogNoLB.fog[70].dispatcher jobs_class_1 1256
scalar FogNoLB.fog[70].dispatcher localJobs_class_1 1256
scalar FogNoLB.fog[70].server[0] rho 0.19126045703888
scalar FogNoLB.fog[70].server[0] congestionRatio 0
scalar FogNoLB.fog[70].server[0] totalJobs 1256
scalar FogNoLB.fog[70].server[0] droppedJobsQueue 19
scalar FogNoLB.fog[70].server[0] droppedJobsTimout 0
scalar FogNoLB.fog[70].server[0] droppedJobsSLA 0
scalar FogNoLB.fog[70].server[0] droppedJobsTotal 19
scalar FogNoLB.fog[71].dispatcher localJobs 1313
scalar FogNoLB.fog[71].dispatcher remoteJobs 0
scalar FogNoLB.fog[71].dispatcher probeQueries 0
scalar FogNoLB.fog[71].dispatcher probeAnswers 0
scalar FogNoLB.fog[71].dispatcher droppedJobsSLA 0
scalar FogNoLB.fog[71].dispatcher jobs_class_1 1313
scalar FogNoLB.fog[71].dispatcher localJobs_class_1 1313
scalar FogNoLB.fog[71].server[0] rho 0.20086911320686
scalar FogNoLB.fog[71].server[0] congestionRatio 0
scalar FogNoLB.fog[71].server[0] totalJobs 1313
scalar FogNoLB.fog[71].server[0] droppedJobsQueue 13
scalar FogNoLB.fog[71].server[0] droppedJobsTimout 0
scalar FogNoLB.fog[71].server[0] droppedJobsSLA 0
scalar FogNoLB.fog[71].server[0] droppedJobsTotal 13
scalar FogNoLB.fog[72].dispatcher localJobs 1272
scalar FogNoLB.fog[72].dispatcher remoteJobs 0
scalar FogNoLB.fog[72].dispatcher probeQueries 0
scalar FogNoLB.fog[72].dispatcher probeAnswers 0
scalar FogNoLB.fog[72].dispatcher droppedJobsSLA 0
scalar FogNoLB.fog[72].dispatcher jobs_class_1 1272
scalar FogNoLB.fog[72].dispatcher localJobs_class_1 1272
scalar FogNoLB.fog[72].server[0] rho 0.1923211067915
scalar FogNoLB.fog[72].server[0] congestionRatio 0
scalar FogNoLB.fog[72].server[0] totalJobs 1272
scalar FogNoLB.fog[72].server[0] droppedJobsQueue 28
scalar FogNoLB.fog[72].server[0] droppedJobsTimout 0
scalar FogNoLB.fog[72].server[0] droppedJobsSLA 0
scalar FogNoLB.fog[72].server[0] droppedJobsTotal 28
scalar FogNoLB.fog[73].dispatcher localJobs 1352
scalar FogNoLB.fog[73].dispatcher remoteJobs 0
scalar FogNoLB.fog[73].dispatcher probeQueries 0
scalar FogNoLB.fog[73].dispatcher probeAnswers 0
scalar FogNoLB.fog[73].dispatcher droppedJobsSLA 0
scalar FogNoLB.fog[73].dispatcher jobs_class_1 1352
scalar FogNoLB.fog[73].dispatcher localJobs_class_1 1352
scalar FogNoLB.fog[73].server[0] rho 0.20530179142952
scalar FogNoLB.fog[73].server[0] congestionRatio 0
scalar FogNoLB.fog[73].server[0] totalJobs 1352
scalar FogNoLB.fog[73].server[0] droppedJobsQueue 24
scalar FogNoLB.fog[73].server[0] droppedJobsTimout 0
scalar FogNoLB.fog[73].server[0] droppedJobsSLA 0
scalar FogNoLB.fog[73].server[0] droppedJobsTotal 24
scalar FogNoLB.fog[74].dispatcher localJobs 1236
scalar FogNoLB.fog[74].dispatcher remoteJobs 0
scalar FogNoLB.fog[74].dispatcher probeQueries 0
scalar FogNoLB.fog[74].dispatcher probeAnswers 0
scalar FogNoLB.fog[74].dispatcher droppedJobsSLA 0
scalar FogNoLB.fog[74].dispatcher jobs_class_1 1236
scalar FogNoLB.fog[74].dispatcher localJobs_class_1 1236
scalar FogNoLB.fog[74].server[0] rho 0.1880130469799
scalar FogNoLB.fog[74].server[0] congestionRatio 0
scalar FogNoLB.fog[74].server[0] totalJobs 1236
scalar FogNoLB.fog[74].server[0] droppedJobsQueue 21
scalar FogNoLB.fog[74].server[0] droppedJobsTimout 0
scalar FogNoLB.fog[74].server[0] droppedJobsSLA 0
scalar FogNoLB.fog[74].server[0] droppedJobsTotal 21
scalar FogNoLB.fog[75].dispatcher localJobs 1252
scalar FogNoLB.fog[75].dispatcher remoteJobs 0
scalar FogNoLB.fog[75].dispatcher probeQueries 0
scalar FogNoLB.fog[75].dispatcher probeAnswers 0
scalar FogNoLB.fog[75].dispatcher droppedJobsSLA 0
scalar FogNoLB.fog[75].dispatcher jobs_class_1 1252
scalar FogNoLB.fog[75].dispatcher localJobs_class_1 1252
scalar FogNoLB.fog[75].server[0] rho 0.18728810548782
scalar FogNoLB.fog[75].server[0] congestionRatio 0
scalar FogNoLB.fog[75].server[0] totalJobs 1252
scalar FogNoLB.fog[75].server[0] droppedJobsQueue 40
scalar FogNoLB.fog[75].server[0] droppedJobsTimout 0
scalar FogNoLB.fog[75].server[0] droppedJobsSLA 0
scalar FogNoLB.fog[75].server[0] droppedJobsTotal 40
scalar FogNoLB.fog[76].dispatcher localJobs 1308
scalar FogNoLB.fog[76].dispatcher remoteJobs 0
scalar FogNoLB.fog[76].dispatcher probeQueries 0
scalar FogNoLB.fog[76].dispatcher probeAnswers 0
scalar FogNoLB.fog[76].dispatcher droppedJobsSLA 0
scalar FogNoLB.fog[76].dispatcher jobs_class_1 1308
scalar FogNoLB.fog[76].dispatcher localJobs_class_1 1308
scalar FogNoLB.fog[76].server[0] rho 0.19997765123844
scalar FogNoLB.fog[76].server[0] congestionRatio 0
scalar FogNoLB.fog[76].server[0] totalJobs 1308
scalar FogNoLB.fog[76].server[0] droppedJobsQueue 14
scalar FogNoLB.fog[76].server[0] droppedJobsTimout 0
scalar FogNoLB.fog[76].server[0] droppedJobsSLA 0
scalar FogNoLB.fog[76].server[0] droppedJobsTotal 14
scalar FogNoLB.fog[77].dispatcher localJobs 1279
scalar FogNoLB.fog[77].dispatcher remoteJobs 0
scalar FogNoLB.fog[77].dispatcher probeQueries 0
scalar FogNoLB.fog[77].dispatcher probeAnswers 0
scalar FogNoLB.fog[77].dispatcher droppedJobsSLA 0
scalar FogNoLB.fog[77].dispatcher jobs_class_1 1279
scalar FogNoLB.fog[77].dispatcher localJobs_class_1 1279
scalar FogNoLB.fog[77].server[0] rho 0.19487354159355
scalar FogNoLB.fog[77].server[0] congestionRatio 0
scalar FogNoLB.fog[77].server[0] totalJobs 1279
scalar FogNoLB.fog[77].server[0] droppedJobsQueue 19
scalar FogNoLB.fog[77].server[0] droppedJobsTimout 0
scalar FogNoLB.fog[77].server[0] droppedJobsSLA 0
scalar FogNoLB.fog[77].server[0] droppedJobsTotal 19
scalar FogNoLB.fog[78].dispatcher localJobs 1324
scalar FogNoLB.fog[78].dispatcher remoteJobs 0
scalar FogNoLB.fog[78].dispatcher probeQueries 0
scalar FogNoLB.fog[78].dispatcher probeAnswers 0
scalar FogNoLB.fog[78].dispatcher droppedJobsSLA 0
scalar FogNoLB.fog[78].dispatcher jobs_class_1 1324
scalar FogNoLB.fog[78].dispatcher localJobs_class_1 1324
scalar FogNoLB.fog[78].server[0] rho 0.20067246258259
scalar FogNoLB.fog[78].server[0] congestionRatio 0
scalar FogNoLB.fog[78].server[0] totalJobs 1324
scalar FogNoLB.fog[78].server[0] droppedJobsQueue 27
scalar FogNoLB.fog[78].server[0] droppedJobsTimout 0
scalar FogNoLB.fog[78].server[0] droppedJobsSLA 0
scalar FogNoLB.fog[78].server[0] droppedJobsTotal 27
scalar FogNoLB.fog[79].dispatcher localJobs 1343
scalar FogNoLB.fog[79].dispatcher remoteJobs 0
scalar FogNoLB.fog[79].dispatcher probeQueries 0
scalar FogNoLB.fog[79].dispatcher probeAnswers 0
scalar FogNoLB.fog[79].dispatcher droppedJobsSLA 0
scalar FogNoLB.fog[79].dispatcher jobs_class_1 1343
scalar FogNoLB.fog[79].dispatcher localJobs_class_1 1343
scalar FogNoLB.fog[79].server[0] rho 0.20351251959801
scalar FogNoLB.fog[79].server[0] congestionRatio 0
scalar FogNoLB.fog[79].server[0] totalJobs 1343
scalar FogNoLB.fog[79].server[0] droppedJobsQueue 26
scalar FogNoLB.fog[79].server[0] droppedJobsTimout 0
scalar FogNoLB.fog[79].server[0] droppedJobsSLA 0
scalar FogNoLB.fog[79].server[0] droppedJobsTotal 26
scalar FogNoLB.fog[80].dispatcher localJobs 1345
scalar FogNoLB.fog[80].dispatcher remoteJobs 0
scalar FogNoLB.fog[80].dispatcher probeQueries 0
scalar FogNoLB.fog[80].dispatcher probeAnswers 0
scalar FogNoLB.fog[80].dispatcher droppedJobsSLA 0
scalar FogNoLB.fog[80].dispatcher jobs_class_1 1345
scalar FogNoLB.fog[80].dispatcher localJobs_class_1 1345
scalar FogNoLB.fog[80].server[0] rho 0.20345114171505
scalar FogNoLB.fog[80].server[0] congestionRatio 0
scalar FogNoLB.fog[80].server[0] totalJobs 1345
scalar FogNoLB.fog[80].server[0] droppedJobsQueue 30
scalar FogNoLB.fog[80].server[0] droppedJobsTimout 0
scalar FogNoLB.fog[80].server[0] droppedJobsSLA 0
scalar FogNoLB.fog[80].server[0] droppedJobsTotal 30
scalar FogNoLB.fog[81].dispatcher localJobs 1263
scalar FogNoLB.fog[81].dispatcher remoteJobs 0
scalar FogNoLB.fog[81].dispatcher probeQueries 0
scalar FogNoLB.fog[81].dispatcher probeAnswers 0
scalar FogNoLB.fog[81].dispatcher droppedJobsSLA 0
scalar FogNoLB.fog[81].dispatcher jobs_class_1 1263
scalar FogNoLB.fog[81].dispatcher localJobs_class_1 1263
scalar FogNoLB.fog[81].server[0] rho 0.19183704257011
scalar FogNoLB.fog[81].server[0] congestionRatio 0
scalar FogNoLB.fog[81].server[0] totalJobs 1263
scalar FogNoLB.fog[81].server[0] droppedJobsQueue 21
scalar FogNoLB.fog[81].server[0] droppedJobsTimout 0
scalar FogNoLB.fog[81].server[0] droppedJobsSLA 0
scalar FogNoLB.fog[81].server[0] droppedJobsTotal 21
scalar FogNoLB.fog[82].dispatcher localJobs 1265
scalar FogNoLB.fog[82].dispatcher remoteJobs 0
scalar FogNoLB.fog[82].dispatcher probeQueries 0
scalar FogNoLB.fog[82].dispatcher probeAnswers 0
scalar FogNoLB.fog[82].dispatcher droppedJobsSLA 0
scalar FogNoLB.fog[82].dispatcher jobs_class_1 1265
scalar FogNoLB.fog[82].dispatcher localJobs_class_1 1265
scalar FogNoLB.fog[82].server[0] rho 0.19184319674969
scalar FogNoLB.fog[82].server[0] congestionRatio 0
scalar FogNoLB.fog[82].server[0] totalJobs 1265
scalar FogNoLB.fog[82].server[0] droppedJobsQueue 23
scalar FogNoLB.fog[82].server[0] droppedJobsTimout 0
scalar FogNoLB.fog[82].server[0] droppedJobsSLA 0
scalar FogNoLB.fog[82].server[0] droppedJobsTotal 23
scalar FogNoLB.fog[83].dispatcher localJobs 1276
scalar FogNoLB.fog[83].dispatcher remoteJobs 0
scalar FogNoLB.fog[83].dispatcher probeQueries 0
scalar FogNoLB.fog[83].dispatcher probeAnswers 0
scalar FogNoLB.fog[83].dispatcher droppedJobsSLA 0
scalar FogNoLB.fog[83].dispatcher jobs_class_1 1276
scalar FogNoLB.fog[83].dispatcher localJobs_class_1 1276
scalar FogNoLB.fog[83].server[0] rho 0.19469241797924
scalar FogNoLB.fog[83].server[0] congestionRatio 0
scalar FogNoLB.fog[83].server[0] totalJobs 1276
scalar FogNoLB.fog[83].server[0] droppedJobsQueue 17
scalar FogNoLB.fog[83].server[0] droppedJobsTimout 0
scalar FogNoLB.fog[83].server[0] droppedJobsSLA 0
scalar FogNoLB.fog[83].server[0] droppedJobsTotal 17
scalar FogNoLB.fog[84].dispatcher localJobs 1299
scalar FogNoLB.fog[84].dispatcher remoteJobs 0
scalar FogNoLB.fog[84].dispatcher probeQueries 0
scalar FogNoLB.fog[84].dispatcher probeAnswers 0
scalar FogNoLB.fog[84].dispatcher droppedJobsSLA 0
scalar FogNoLB.fog[84].dispatcher jobs_class_1 1299
scalar FogNoLB.fog[84].dispatcher localJobs_class_1 1299
scalar FogNoLB.fog[84].server[0] rho 0.19549486041069
scalar FogNoLB.fog[84].server[0] congestionRatio 0
scalar FogNoLB.fog[84].server[0] totalJobs 1299
scalar FogNoLB.fog[84].server[0] droppedJobsQueue 34
scalar FogNoLB.fog[84].server[0] droppedJobsTimout 0
scalar FogNoLB.fog[84].server[0] droppedJobsSLA 0
scalar FogNoLB.fog[84].server[0] droppedJobsTotal 34
scalar FogNoLB.fog[85].dispatcher localJobs 1223
scalar FogNoLB.fog[85].dispatcher remoteJobs 0
scalar FogNoLB.fog[85].dispatcher probeQueries 0
scalar FogNoLB.fog[85].dispatcher probeAnswers 0
scalar FogNoLB.fog[85].dispatcher droppedJobsSLA 0
scalar FogNoLB.fog[85].dispatcher jobs_class_1 1223
scalar FogNoLB.fog[85].dispatcher localJobs_class_1 1223
scalar FogNoLB.fog[85].server[0] rho 0.18662030994892
scalar FogNoLB.fog[85].server[0] congestionRatio 0
scalar FogNoLB.fog[85].server[0] totalJobs 1223
scalar FogNoLB.fog[85].server[0] droppedJobsQueue 15
scalar FogNoLB.fog[85].server[0] droppedJobsTimout 0
scalar FogNoLB.fog[85].server[0] droppedJobsSLA 0
scalar FogNoLB.fog[85].server[0] droppedJobsTotal 15
scalar FogNoLB.fog[86].dispatcher localJobs 1296
scalar FogNoLB.fog[86].dispatcher remoteJobs 0
scalar FogNoLB.fog[86].dispatcher probeQueries 0
scalar FogNoLB.fog[86].dispatcher probeAnswers 0
scalar FogNoLB.fog[86].dispatcher droppedJobsSLA 0
scalar FogNoLB.fog[86].dispatcher jobs_class_1 1296
scalar FogNoLB.fog[86].dispatcher localJobs_class_1 1296
scalar FogNoLB.fog[86].server[0] rho 0.19705876708031
scalar FogNoLB.fog[86].server[0] congestionRatio 0
scalar FogNoLB.fog[86].server[0] totalJobs 1296
scalar FogNoLB.fog[86].server[0] droppedJobsQueue 21
scalar FogNoLB.fog[86].server[0] droppedJobsTimout 0
scalar FogNoLB.fog[86].server[0] droppedJobsSLA 0
scalar FogNoLB.fog[86].server[0] droppedJobsTotal 21
scalar FogNoLB.fog[87].dispatcher localJobs 1287
scalar FogNoLB.fog[87].dispatcher remoteJobs 0
scalar FogNoLB.fog[87].dispatcher probeQueries 0
scalar FogNoLB.fog[87].dispatcher probeAnswers 0
scalar FogNoLB.fog[87].dispatcher droppedJobsSLA 0
scalar FogNoLB.fog[87].dispatcher jobs_class_1 1287
scalar FogNoLB.fog[87].dispatcher localJobs_class_1 1287
scalar FogNoLB.fog[87].server[0] rho 0.19449995458126
scalar FogNoLB.fog[87].server[0] congestionRatio 0
scalar FogNoLB.fog[87].server[0] totalJobs 1287
scalar FogNoLB.fog[87].server[0] droppedJobsQueue 29
scalar FogNoLB.fog[87].server[0] droppedJobsTimout 0
scalar FogNoLB.fog[87].server[0] droppedJobsSLA 0
scalar FogNoLB.fog[87].server[0] droppedJobsTotal 29
scalar FogNoLB.fog[88].dispatcher localJobs 1244
scalar FogNoLB.fog[88].dispatcher remoteJobs 0
scalar FogNoLB.fog[88].dispatcher probeQueries 0
scalar FogNoLB.fog[88].dispatcher probeAnswers 0
scalar FogNoLB.fog[88].dispatcher droppedJobsSLA 0
scalar FogNoLB.fog[88].dispatcher jobs_class_1 1244
scalar FogNoLB.fog[88].dispatcher localJobs_class_1 1244
scalar FogNoLB.fog[88].server[0] rho 0.18908463418484
scalar FogNoLB.fog[88].server[0] congestionRatio 0
scalar FogNoLB.fog[88].server[0] totalJobs 1244
scalar FogNoLB.fog[88].server[0] droppedJobsQueue 21
scalar FogNoLB.fog[88].server[0] droppedJobsTimout 0
scalar FogNoLB.fog[88].server[0] droppedJobsSLA 0
scalar FogNoLB.fog[88].server[0] droppedJobsTotal 21
scalar FogNoLB.fog[89].dispatcher localJobs 1289
scalar FogNoLB.fog[89].dispatcher remoteJobs 0
scalar FogNoLB.fog[89].dispatcher probeQueries 0
scalar FogNoLB.fog[89].dispatcher probeAnswers 0
scalar FogNoLB.fog[89].dispatcher droppedJobsSLA 0
scalar FogNoLB.fog[89].dispatcher jobs_class_1 1289
scalar FogNoLB.fog[89].dispatcher localJobs_class_1 1289
scalar FogNoLB.fog[89].server[0] rho 0.19610995054245
scalar FogNoLB.fog[89].server[0] congestionRatio 0
scalar FogNoLB.fog[89].server[0] totalJobs 1289
scalar FogNoLB.fog[89].server[0] droppedJobsQueue 21
scalar FogNoLB.fog[89].server[0] droppedJobsTimout 0
scalar FogNoLB.fog[89].server[0] droppedJobsSLA 0
scalar FogNoLB.fog[89].server[0] droppedJobsTotal 21
scalar FogNoLB.fog[90].dispatcher localJobs 1302
scalar FogNoLB.fog[90].dispatcher remoteJobs 0
scalar FogNoLB.fog[90].dispatcher probeQueries 0
scalar FogNoLB.fog[90].dispatcher probeAnswers 0
scalar FogNoLB.fog[90].dispatcher droppedJobsSLA 0
scalar FogNoLB.fog[90].dispatcher jobs_class_1 1302
scalar FogNoLB.fog[90].dispatcher localJobs_class_1 1302
scalar FogNoLB.fog[90].server[0] rho 0.19795955717564
scalar FogNoLB.fog[90].server[0] congestionRatio 0
scalar FogNoLB.fog[90].server[0] totalJobs 1302
scalar FogNoLB.fog[90].server[0] droppedJobsQueue 23
scalar FogNoLB.fog[90].server[0] droppedJobsTimout 0
scalar FogNoLB.fog[90].server[0] droppedJobsSLA 0
scalar FogNoLB.fog[90].server[0] droppedJobsTotal 23
scalar FogNoLB.fog[91].dispatcher localJobs 1246
scalar FogNoLB.fog[91].dispatcher remoteJobs 0
scalar FogNoLB.fog[91].dispatcher probeQueries 0
scalar FogNoLB.fog[91].dispatcher probeAnswers 0
scalar FogNoLB.fog[91].dispatcher droppedJobsSLA 0
scalar FogNoLB.fog[91].dispatcher jobs_class_1 1246
scalar FogNoLB.fog[91].dispatcher localJobs_class_1 1246
scalar FogNoLB.fog[91].server[0] rho 0.19104139506817
scalar FogNoLB.fog[91].server[0] congestionRatio 0
scalar FogNoLB.fog[91].server[0] totalJobs 1246
scalar FogNoLB.fog[91].server[0] droppedJobsQueue 11
scalar FogNoLB.fog[91].server[0] droppedJobsTimout 0
scalar FogNoLB.fog[91].server[0] droppedJobsSLA 0
scalar FogNoLB.fog[91].server[0] droppedJobsTotal 11
scalar FogNoLB.fog[92].dispatcher localJobs 1289
scalar FogNoLB.fog[92].dispatcher remoteJobs 0
scalar FogNoLB.fog[92].dispatcher probeQueries 0
scalar FogNoLB.fog[92].dispatcher probeAnswers 0
scalar FogNoLB.fog[92].dispatcher droppedJobsSLA 0
scalar FogNoLB.fog[92].dispatcher jobs_class_1 1289
scalar FogNoLB.fog[92].dispatcher localJobs_class_1 1289
scalar FogNoLB.fog[92].server[0] rho 0.19591775536537
scalar FogNoLB.fog[92].server[0] congestionRatio 0
scalar FogNoLB.fog[92].server[0] totalJobs 1289
scalar FogNoLB.fog[92].server[0] droppedJobsQueue 22
scalar FogNoLB.fog[92].server[0] droppedJobsTimout 0
scalar FogNoLB.fog[92].server[0] droppedJobsSLA 0
scalar FogNoLB.fog[92].server[0] droppedJobsTotal 22
scalar FogNoLB.fog[93].dispatcher localJobs 1355
scalar FogNoLB.fog[93].dispatcher remoteJobs 0
scalar FogNoLB.fog[93].dispatcher probeQueries 0
scalar FogNoLB.fog[93].dispatcher probeAnswers 0
scalar FogNoLB.fog[93].dispatcher droppedJobsSLA 0
scalar FogNoLB.fog[93].dispatcher jobs_class_1 1355
scalar FogNoLB.fog[93].dispatcher localJobs_class_1 1355
scalar FogNoLB.fog[93].server[0] rho 0.20415896177292
scalar FogNoLB.fog[93].server[0] congestionRatio 0
scalar FogNoLB.fog[93].server[0] totalJobs 1355
scalar FogNoLB.fog[93].server[0] droppedJobsQueue 34
scalar FogNoLB.fog[93].server[0] droppedJobsTimout 0
scalar FogNoLB.fog[93].server[0] droppedJobsSLA 0
scalar FogNoLB.fog[93].server[0] droppedJobsTotal 34
scalar FogNoLB.fog[94].dispatcher localJobs 1378
scalar FogNoLB.fog[94].dispatcher remoteJobs 0
scalar FogNoLB.fog[94].dispatcher probeQueries 0
scalar FogNoLB.fog[94].dispatcher probeAnswers 0
scalar FogNoLB.fog[94].dispatcher droppedJobsSLA 0
scalar FogNoLB.fog[94].dispatcher jobs_class_1 1378
scalar FogNoLB.fog[94].dispatcher localJobs_class_1 1378
scalar FogNoLB.fog[94].server[0] rho 0.20888863503933
scalar FogNoLB.fog[94].server[0] congestionRatio 0
scalar FogNoLB.fog[94].server[0] totalJobs 1378
scalar FogNoLB.fog[94].server[0] droppedJobsQueue 26
scalar FogNoLB.fog[94].server[0] droppedJobsTimout 0
scalar FogNoLB.fog[94].server[0] droppedJobsSLA 0
scalar FogNoLB.fog[94].server[0] droppedJobsTotal 26
scalar FogNoLB.fog[95].dispatcher localJobs 1310
scalar FogNoLB.fog[95].dispatcher remoteJobs 0
scalar FogNoLB.fog[95].dispatcher probeQueries 0
scalar FogNoLB.fog[95].dispatcher probeAnswers 0
scalar FogNoLB.fog[95].dispatcher droppedJobsSLA 0
scalar FogNoLB.fog[95].dispatcher jobs_class_1 1310
scalar FogNoLB.fog[95].dispatcher localJobs_class_1 1310
scalar FogNoLB.fog[95].server[0] rho 0.20001497864723
scalar FogNoLB.fog[95].server[0] congestionRatio 0
scalar FogNoLB.fog[95].server[0] totalJobs 1310
scalar FogNoLB.fog[95].server[0] droppedJobsQueue 16
scalar FogNoLB.fog[95].server[0] droppedJobsTimout 0
scalar FogNoLB.fog[95].server[0] droppedJobsSLA 0
scalar FogNoLB.fog[95].server[0] droppedJobsTotal 16
scalar FogNoLB.fog[96].dispatcher localJobs 1247
scalar FogNoLB.fog[96].dispatcher remoteJobs 0
scalar FogNoLB.fog[96].dispatcher probeQueries 0
scalar FogNoLB.fog[96].dispatcher probeAnswers 0
scalar FogNoLB.fog[96].dispatcher droppedJobsSLA 0
scalar FogNoLB.fog[96].dispatcher jobs_class_1 1247
scalar FogNoLB.fog[96].dispatcher localJobs_class_1 1247
scalar FogNoLB.fog[96].server[0] rho 0.18884140253067
scalar FogNoLB.fog[96].server[0] congestionRatio 0
scalar FogNoLB.fog[96].server[0] totalJobs 1247
scalar FogNoLB.fog[96].server[0] droppedJobsQueue 25
scalar FogNoLB.fog[96].server[0] droppedJobsTimout 0
scalar FogNoLB.fog[96].server[0] droppedJobsSLA 0
scalar FogNoLB.fog[96].server[0] droppedJobsTotal 25
scalar FogNoLB.fog[97].dispatcher localJobs 1266
scalar FogNoLB.fog[97].dispatcher remoteJobs 0
scalar FogNoLB.fog[97].dispatcher probeQueries 0
scalar FogNoLB.fog[97].dispatcher probeAnswers 0
scalar FogNoLB.fog[97].dispatcher droppedJobsSLA 0
scalar FogNoLB.fog[97].dispatcher jobs_class_1 1266
scalar FogNoLB.fog[97].dispatcher localJobs_class_1 1266
scalar FogNoLB.fog[97].server[0] rho 0.19151557981968
scalar FogNoLB.fog[97].server[0] congestionRatio 0
scalar FogNoLB.fog[97].server[0] totalJobs 1266
scalar FogNoLB.fog[97].server[0] droppedJobsQueue 28
scalar FogNoLB.fog[97].server[0] droppedJobsTimout 0
scalar FogNoLB.fog[97].server[0] droppedJobsSLA 0
scalar FogNoLB.fog[97].server[0] droppedJobsTotal 28
scalar FogNoLB.fog[98].dispatcher localJobs 1307
scalar FogNoLB.fog[98].dispatcher remoteJobs 0
scalar FogNoLB.fog[98].dispatcher probeQueries 0
scalar FogNoLB.fog[98].dispatcher probeAnswers 0
scalar FogNoLB.fog[98].dispatcher droppedJobsSLA 0
scalar FogNoLB.fog[98].dispatcher jobs_class_1 1307
scalar FogNoLB.fog[98].dispatcher localJobs_class_1 1307
scalar FogNoLB.fog[98].server[0] rho 0.19799444079399
scalar FogNoLB.fog[98].server[0] congestionRatio 0
scalar FogNoLB.fog[98].server[0] totalJobs 1307
scalar FogNoLB.fog[98].server[0] droppedJobsQueue 28
scalar FogNoLB.fog[98].server[0] droppedJobsTimout 0
scalar FogNoLB.fog[98].server[0] droppedJobsSLA 0
scalar FogNoLB.fog[98].server[0] droppedJobsTotal 28
scalar FogNoLB.fog[99].dispatcher localJobs 1270
scalar FogNoLB.fog[99].dispatcher remoteJobs 0
scalar FogNoLB.fog[99].dispatcher probeQueries 0
scalar FogNoLB.fog[99].dispatcher probeAnswers 0
scalar FogNoLB.fog[99].dispatcher droppedJobsSLA 0
scalar FogNoLB.fog[99].dispatcher jobs_class_1 1270
scalar FogNoLB.fog[99].dispatcher localJobs_class_1 1270
scalar FogNoLB.fog[99].server[0] rho 0.1919611543417
scalar FogNoLB.fog[99].server[0] congestionRatio 0
scalar FogNoLB.fog[99].server[0] totalJobs 1270
scalar FogNoLB.fog[99].server[0] droppedJobsQueue 29
scalar FogNoLB.fog[99].server[0] droppedJobsTimout 0
scalar FogNoLB.fog[99].server[0] droppedJobsSLA 0
scalar FogNoLB.fog[99].server[0] droppedJobsTotal 29
scalar FogNoLB.sink avg_responseTime_1 1.8279600125295
scalar FogNoLB.sink p90_responseTime_1 1.518685382945
scalar FogNoLB.sink med_responseTime_1 1.518685382945
scalar FogNoLB.sink avg_delayTime_1 0
scalar FogNoLB.sink p90_delayTime_1 0
scalar FogNoLB.sink med_delayTime_1 0
scalar FogNoLB.sink avg_queuingTime_1 0.15791577668285
scalar FogNoLB.sink p90_queuingTime_1 0
scalar FogNoLB.sink med_queuingTime_1 0
scalar FogNoLB.sink avg_serviceTime_1 1.6700442358467
scalar FogNoLB.sink p90_serviceTime_1 1.514170825719
scalar FogNoLB.sink med_serviceTime_1 1.514170825719
scalar FogNoLB.sink avg_balancerTime_1 0
scalar FogNoLB.sink p90_balancerTime_1 0
scalar FogNoLB.sink med_balancerTime_1 0
scalar FogNoLB.sink avg_balancerCount_1 1
scalar FogNoLB.sink p90_balancerCount_1 1
scalar FogNoLB.sink med_balancerCount_1 1

